* Copyright 2020 The SkyWater PDK Authors
*
* Licensed under the Apache License, Version 2.0 (the "License");
* you may not use this file except in compliance with the License.
* You may obtain a copy of the License at
*
*     https://www.apache.org/licenses/LICENSE-2.0
*
* Unless required by applicable law or agreed to in writing, software
* distributed under the License is distributed on an "AS IS" BASIS,
* WITHOUT WARRANTIES OR CONDITIONS OF ANY KIND, either express or implied.
* See the License for the specific language governing permissions and
* limitations under the License.
*
* SPDX-License-Identifier: Apache-2.0
*Auto-converted ../spectremodels/nshort.pm3 by model_spectre_mismatchmaker.rb
//  converted from amsmodels/nshort.pm3
*simulator lang=spectre
//  BSIMTran Version 0.1.24, Created on 4-26-2002
//  Username: pxg
//  Command Line: /home/pxg/config/cydir/bin/lnx86/bsimtran nmos_bsim4.rf nmos -p -nnshort ../discrete/nshort_modelnamechanged.pm3 nshort_ov.pm ndiode_m31_iv.pm ndiode_m31_cv.pm nshort_wafer.pm3 
//  Working Directory: /home/pxg/rams/s8/models.3.1/rev_model/nshort/combined
//  Time: Thu Jul 19 15:42:31 2007
//  Rule File:  nmos_bsim4.rf
//  Output File:  nshort_wafer.pm3
//  Input Files:
//  (1) ../discrete/nshort_modelnamechanged.pm3
//  (2) nshort_ov.pm
//  (3) ndiode_m31_iv.pm
//  (4) ndiode_m31_cv.pm
// BSIM3.V3 NMOS Model
// spectre mismatch params here
//parameters nshort_lint_slope_spectre = 0.0
//parameters nshort_wint_slope_spectre = 0.0
*parameters nshort_toxe_slope_spectre = 0.0
*parameters nshort_vth0_slope_spectre = 0.0
*parameters nshort_voff_slope_spectre = 0.0
*parameters nshort_nfactor_slope_spectre = 0.0
*statistics {
  *process {
*  }
  *mismatch {
//    vary nshort_lint_slope_spectre dist=gauss std = 1.0
//    vary nshort_wint_slope_spectre dist=gauss std = 1.0
*    vary 0.0 dist=gauss std = 1.0
*    vary 0.0 dist=gauss std = 1.0
*    vary 0.0 dist=gauss std = 1.0
*    vary 0.0 dist=gauss std = 1.0
*  }
*}
*inline subckt nshort (d g s b)
*parameters l = 1 w = 1 ad = 0 as = 0 pd = 0 ps = 0 nrd = 0 nrs = 0 sa = 0 sb = 0 sd = 0 mult = 1 nf = 1 
*nshort (d g s b) nshort_model 1 = 1 w = w ad = ad as = as pd = pd ps = ps nrd = nrd nrs = nrs sa = sa sb = sb sd = sd nf = nf 
*model nshort_model bsim4 {
.model nshort_model.0 nmos (
// 
// DC IV MOS PARAMETERS
// 
+ lmin = 1.45e-07 lmax = 1.55e-07 wmin = 1.255e-06 wmax = 1.265e-06
+ level = 54 
+ tnom = 30 
+ version = 4.5 
+ toxm = 4.148e-009 
+ xj = 1.5e-007 
+ lln = 1 
+ lwn = 1 
+ wln = 1 
+ wwn = 1 
+ lint = 1.1932e-008+0.0 
+ ll = 0 
+ lw = 0 
+ lwl = 0 
+ wint = 2.1859e-008+0.0 
+ wl = 0 
+ ww = 0 
+ wwl = 0 
+ xl = 0 
+ xw = 0 
+ mobmod = 0 
+ binunit = 2 
+ dwg = 0 
+ dwb = 0 
// NEW BSIM4 Parameters(Model Selectors)
+ igcmod = 0 
+ igbmod = 0 
+ rgatemod = 0 
+ rbodymod = 1 
+ trnqsmod = 0 
+ acnqsmod = 0 
+ fnoimod = 1 
+ tnoimod = 1 
+ permod = 1 
+ geomod = 0 
+ rdsmod = 0 
+ tempmod = 0 
// ******
// NEW BSIM4 Parameters(4.4 Version)
+ lintnoi = -1.0e-07 
+ vfbsdoff = 0 
+ lambda = 0 
+ vtl = 0 
+ lc = 5e-009 
+ xn = 3 
+ rnoia = 0.94
+ rnoib = 0.26
+ tnoia = 1.5e7
+ tnoib = 9.9e6
// NEW BSIM4 Parameters(Process Parameters)
+ epsrox = 3.9 
+ toxe = 4.148e-009 
+ dtox = 0 
+ ndep = 1.7e+017 
+ nsd = 1e+020 
+ rshg = 0.1 
// ***
+ rsh = 1 
// 
//  THRESHOLD VOLTAGE PARAMETERS
// 
+ vth0 = 0.49439+0.0 
+ k1 = 0.90707349 
+ k2 = -0.12949+0.0 
+ k3 = 2 
+ dvt0 = 0 
+ dvt1 = 0.53 
+ dvt2 = -0.032 
+ dvt0w = -3.58 
+ dvt1w = 1670600 
+ dvt2w = 0.068 
+ w0 = 0 
+ k3b = 0.54 
// NEW BSIM4 Parameters for Level 54
+ phin = 0 
+ lpe0 = 1.0325e-007 
+ lpeb = -7.082e-008 
+ vbm = -3 
+ dvtp0 = 0 
+ dvtp1 = 0 
// 
//  MOBILITY PARAMETERS
// 
+ vsat = 176320+0.0 
+ ua = -1.1926e-009+0.0 
+ ub = 2.1846e-018+0.0 
+ uc = 8.1022e-011 
+ rdsw = 65.968+0.0 
+ prwb = 0 
+ prwg = 0.021507 
+ wr = 1 
+ u0 = 0.030197+0.0 
+ a0 = 1.5+0.0 
+ keta = 0+0.0 
+ a1 = 0 
+ a2 = 0.42385546 
+ ags = 1.25+0.0 
+ b0 = 0+0.0 
+ b1 = 0+0.0 
// NEW BSIM4 Parameters(Mobility Parameters)
+ eu = 1.67 
+ rdswmin = 0 
+ rdw = 0 
+ rdwmin = 0 
+ rsw = 0 
+ rswmin = 0 
// ****
// 
//  SUBTHRESHOLD CURRENT PARAMETERS
// 
+ voff = -0.20753+0.0 
+ nfactor = 2.015+0.0 
+ up = 0.0
+ ud = 0.0
+ lp = 1.0
+ tvfbsdoff = 0.0
+ tvoff = 0+0.0
+ cit = 0 
+ cdsc = 0 
+ cdscb = 0 
+ cdscd = 0.002052 
+ eta0 = 0.00069413878+0.0 
+ etab = -0.043998 
+ dsub = 0.45862506 
// NEW BSIM4 Parameters(Sub-threshold parameters)
+ voffl = 5.8197729e-009 
+ minv = 0 
// ****
// 
//  ROUT PARAMETERS
// 
+ pclm = 0.14094+0.0 
+ pdiblc1 = 0.35697215 
+ pdiblc2 = 0.0084061121 
+ pdiblcb = -0.10329577 
+ drout = 0.50332666 
+ pscbe1 = 7.9141988e+008 
+ pscbe2 = 1e-012 
+ pvag = 0 
+ delta = 0.01 
+ alpha0 = 3e-008 
+ alpha1 = 0.85 
+ beta0 = 13.85 
// NEW BSIM4 Parameters(ROUT Parameters)
+ fprout = 0 
+ pdits = 0+0.0 
+ pditsl = 0 
+ pditsd = 0+0.0 
// ***
// NEW BSIM4 Parameters(GATE INDUCED DRAIN LEAKAGE MODEL PARAMTERS)
+ agidl = 0 
+ bgidl = 2.3e+009 
+ cgidl = 0.5 
+ egidl = 0.8 
// ***
// NEW BSIM4 Parameters(Gate Leakage Current Parameters)
+ aigbacc = 1 
+ bigbacc = 0 
+ cigbacc = 0 
+ nigbacc = 0 
+ aigbinv = 0.35 
+ bigbinv = 0.03 
+ cigbinv = 0.006 
+ eigbinv = 1.1 
+ nigbinv = 0 
+ aigc = 0.43 
+ bigc = 0.054 
+ cigc = 0.075 
+ nigc = 0 
+ aigsd = 0.43 
+ bigsd = 0.054 
+ cigsd = 0.075 
+ dlcig = 0 
+ poxedge = 1 
+ pigcd = 1 
+ ntox = 1 
+ toxref = 4.148e-009 
// ****
// 
//  TEMPERATURE EFFECTS PARAMETERS
// 
+ kt1 = -0.22096074+0.0 
+ kt2 = -0.028878939 
+ at = 40720.487 
+ ute = -1.3190432 
+ ua1 = -2.3847336e-011 
+ ub1 = 7.0775317e-019 
+ uc1 = 1.4718625e-010 
+ kt1l = 0 
+ prt = 0 
// NEW BSIM4 Parameters(HIGH SPEED RF MODEL PARAMETERS)
+ xrcrg1 = 12 
+ xrcrg2 = 1 
+ rbpb = 50 
+ rbpd = 50 
+ rbps = 50 
+ rbdb = 50 
+ rbsb = 50 
+ gbmin = 1e-012 
// ***
// NEW BSIM4 Parameters(FLICKER and THERMAL NOISE PARAMETERS)
+ noia = 2.5e+42 
+ noib = 0.0 
+ noic = 0.0 
+ em = 4.1000000E+07 
+ af = 1 
+ ef = 0.84 
+ kf = 0 
+ ntnoi = 1 
// ****
// NEW BSIM4 Parameters(LAYOUT DEPENDENT PARASITIC MODEL PARAMETERS)
+ dmcg = 0 
+ dmcgt = 0 
+ dmdg = 0 
+ xgw = 0 
+ xgl = 0 
+ ngcon = 1 
// ***
// 
// DIODE DC IV PARAMTERS
// 
// NEW BSIM4 Parameters(DIODE DC IV parameters)
+ diomod = 1 
+ njs = 1.2928 
+ jss = 0.0027500000000000003 
+ jsws = 6e-10 
+ xtis = 2 
+ bvs = 11.7 
+ xjbvs = 1 
+ ijthsrev = 0.1 
+ ijthsfwd = 0.1 
// 
//  DIODE and FET CAPACITANCE PARAMETERS
// 
+ tpb = 0.0012287 
+ tpbsw = 0 
+ tpbswg = 0 
+ tcj = 0.000792 
+ tcjsw = 1e-005 
+ tcjswg = 0 
+ cgdo = 2.54e-010 
+ cgso = 2.54e-010 
+ cgbo = 1e-013 
+ capmod = 2 
+ xpart = 0 
+ cgsl = 0 
+ cgdl = 0 
+ cf = 1.4067e-012 
+ clc = 1e-007 
+ cle = 0.6 
+ dlc = 1.0494e-008+0.0+0.0 
+ dwc = 0+0.0 
+ vfbcv = -1 
+ acde = 0.4 
+ moin = 6.9 
+ noff = 3.4037 
+ voffcv = -0.17287 
+ ngate = 1e+023 
+ lwc = 0 
+ llc = 0 
+ lwlc = 0 
+ wlc = 0 
+ wwc = 0 
+ wwlc = 0 
// NEW BSIM4 Parameters(FET and DIODE capacitance parameters)
+ ckappas = 0.6 
+ cjs = 0.0013459 
+ mjs = 0.44 
+ pbs = 0.729 
+ cjsws = 3.6001e-011 
+ mjsws = 0.0009 
+ pbsws = 0.2 
+ cjswgs = 2.3347e-010 
+ mjswgs = 0.8000 
+ pbswgs = 0.95578 
//  
// STRESS PARAMETERS 
//  
+ saref = 1.04e-06
+ sbref = 1.04e-06
+ wlod = 0
+ kvth0 = 9.8e-9
+ lkvth0 = 0
+ wkvth0 = 0.2e-6
+ pkvth0 = 0
+ llodvth = 0
+ wlodvth = 1
+ stk2 = 0
+ lodk2 = 1
+ lodeta0 = 1
+ ku0 = -2.7e-08
+ lku0 = 0
+ wku0 = 0
+ pku0 = 0
+ llodku0 = 0
+ wlodku0 = 1
+ kvsat = 0.2
+ steta0 = 0
+ tku0 = 0
// *****
+)

.model nshort_model.1 nmos (
// 
// DC IV MOS PARAMETERS
// 
+ lmin = 1.45e-07 lmax = 1.55e-07 wmin = 1.675e-06 wmax = 1.685e-06
+ level = 54 
+ tnom = 30 
+ version = 4.5 
+ toxm = 4.148e-009 
+ xj = 1.5e-007 
+ lln = 1 
+ lwn = 1 
+ wln = 1 
+ wwn = 1 
+ lint = 1.1932e-008+0.0 
+ ll = 0 
+ lw = 0 
+ lwl = 0 
+ wint = 2.1859e-008+0.0 
+ wl = 0 
+ ww = 0 
+ wwl = 0 
+ xl = 0 
+ xw = 0 
+ mobmod = 0 
+ binunit = 2 
+ dwg = 0 
+ dwb = 0 
// NEW BSIM4 Parameters(Model Selectors)
+ igcmod = 0 
+ igbmod = 0 
+ rgatemod = 0 
+ rbodymod = 1 
+ trnqsmod = 0 
+ acnqsmod = 0 
+ fnoimod = 1 
+ tnoimod = 1 
+ permod = 1 
+ geomod = 0 
+ rdsmod = 0 
+ tempmod = 0 
// ******
// NEW BSIM4 Parameters(4.4 Version)
+ lintnoi = -1.0e-07 
+ vfbsdoff = 0 
+ lambda = 0 
+ vtl = 0 
+ lc = 5e-009 
+ xn = 3 
+ rnoia = 0.94
+ rnoib = 0.26
+ tnoia = 1.5e7
+ tnoib = 9.9e6
// NEW BSIM4 Parameters(Process Parameters)
+ epsrox = 3.9 
+ toxe = 4.148e-009 
+ dtox = 0 
+ ndep = 1.7e+017 
+ nsd = 1e+020 
+ rshg = 0.1 
// ***
+ rsh = 1 
// 
//  THRESHOLD VOLTAGE PARAMETERS
// 
+ vth0 = 0.45777+0.0 
+ k1 = 0.90707349 
+ k2 = -0.13489+0.0 
+ k3 = 2 
+ dvt0 = 0 
+ dvt1 = 0.53 
+ dvt2 = -0.032 
+ dvt0w = -3.58 
+ dvt1w = 1670600 
+ dvt2w = 0.068 
+ w0 = 0 
+ k3b = 0.54 
// NEW BSIM4 Parameters for Level 54
+ phin = 0 
+ lpe0 = 1.0325e-007 
+ lpeb = -7.082e-008 
+ vbm = -3 
+ dvtp0 = 0 
+ dvtp1 = 0 
// 
//  MOBILITY PARAMETERS
// 
+ vsat = 176320+0.0 
+ ua = -1.1926e-009+0.0 
+ ub = 2.1006e-018+0.0 
+ uc = 6.4303e-011 
+ rdsw = 65.968+0.0 
+ prwb = 0 
+ prwg = 0.021507 
+ wr = 1 
+ u0 = 0.030197+0.0 
+ a0 = 1.5+0.0 
+ keta = 0+0.0 
+ a1 = 0 
+ a2 = 0.42385546 
+ ags = 1.25+0.0 
+ b0 = 0+0.0 
+ b1 = 0+0.0 
// NEW BSIM4 Parameters(Mobility Parameters)
+ eu = 1.67 
+ rdswmin = 0 
+ rdw = 0 
+ rdwmin = 0 
+ rsw = 0 
+ rswmin = 0 
// ****
// 
//  SUBTHRESHOLD CURRENT PARAMETERS
// 
+ voff = -0.20753+0.0 
+ nfactor = 2.015+0.0 
+ up = 0.0
+ ud = 0.0
+ lp = 1.0
+ tvfbsdoff = 0.0
+ tvoff = 0+0.0
+ cit = 0 
+ cdsc = 0 
+ cdscb = 0 
+ cdscd = 0.002052 
+ eta0 = 0.00069413878+0.0 
+ etab = -0.043998 
+ dsub = 0.45862506 
// NEW BSIM4 Parameters(Sub-threshold parameters)
+ voffl = 5.8197729e-009 
+ minv = 0 
// ****
// 
//  ROUT PARAMETERS
// 
+ pclm = 0.14094+0.0 
+ pdiblc1 = 0.35697215 
+ pdiblc2 = 0.0084061121 
+ pdiblcb = -0.10329577 
+ drout = 0.50332666 
+ pscbe1 = 7.9141988e+008 
+ pscbe2 = 1e-012 
+ pvag = 0 
+ delta = 0.01 
+ alpha0 = 3e-008 
+ alpha1 = 0.85 
+ beta0 = 13.82 
// NEW BSIM4 Parameters(ROUT Parameters)
+ fprout = 0 
+ pdits = 0+0.0 
+ pditsl = 0 
+ pditsd = 0+0.0 
// ***
// NEW BSIM4 Parameters(GATE INDUCED DRAIN LEAKAGE MODEL PARAMTERS)
+ agidl = 0 
+ bgidl = 2.3e+009 
+ cgidl = 0.5 
+ egidl = 0.8 
// ***
// NEW BSIM4 Parameters(Gate Leakage Current Parameters)
+ aigbacc = 1 
+ bigbacc = 0 
+ cigbacc = 0 
+ nigbacc = 0 
+ aigbinv = 0.35 
+ bigbinv = 0.03 
+ cigbinv = 0.006 
+ eigbinv = 1.1 
+ nigbinv = 0 
+ aigc = 0.43 
+ bigc = 0.054 
+ cigc = 0.075 
+ nigc = 0 
+ aigsd = 0.43 
+ bigsd = 0.054 
+ cigsd = 0.075 
+ dlcig = 0 
+ poxedge = 1 
+ pigcd = 1 
+ ntox = 1 
+ toxref = 4.148e-009 
// ****
// 
//  TEMPERATURE EFFECTS PARAMETERS
// 
+ kt1 = -0.22096074+0.0 
+ kt2 = -0.028878939 
+ at = 60720.487 
+ ute = -1.3190432 
+ ua1 = -2.3847336e-011 
+ ub1 = 7.0775317e-019 
+ uc1 = 1.4718625e-010 
+ kt1l = 0 
+ prt = 0 
// NEW BSIM4 Parameters(HIGH SPEED RF MODEL PARAMETERS)
+ xrcrg1 = 12 
+ xrcrg2 = 1 
+ rbpb = 50 
+ rbpd = 50 
+ rbps = 50 
+ rbdb = 50 
+ rbsb = 50 
+ gbmin = 1e-012 
// ***
// NEW BSIM4 Parameters(FLICKER and THERMAL NOISE PARAMETERS)
+ noia = 2.5e+42 
+ noib = 0.0 
+ noic = 0.0 
+ em = 4.1000000E+07 
+ af = 1 
+ ef = 0.84 
+ kf = 0 
+ ntnoi = 1 
// ****
// NEW BSIM4 Parameters(LAYOUT DEPENDENT PARASITIC MODEL PARAMETERS)
+ dmcg = 0 
+ dmcgt = 0 
+ dmdg = 0 
+ xgw = 0 
+ xgl = 0 
+ ngcon = 1 
// ***
// 
// DIODE DC IV PARAMTERS
// 
// NEW BSIM4 Parameters(DIODE DC IV parameters)
+ diomod = 1 
+ njs = 1.2928 
+ jss = 0.0027500000000000003 
+ jsws = 6e-10 
+ xtis = 2 
+ bvs = 11.7 
+ xjbvs = 1 
+ ijthsrev = 0.1 
+ ijthsfwd = 0.1 
// 
//  DIODE and FET CAPACITANCE PARAMETERS
// 
+ tpb = 0.0012287 
+ tpbsw = 0 
+ tpbswg = 0 
+ tcj = 0.000792 
+ tcjsw = 1e-005 
+ tcjswg = 0 
+ cgdo = 2.54e-010 
+ cgso = 2.54e-010 
+ cgbo = 1e-013 
+ capmod = 2 
+ xpart = 0 
+ cgsl = 0 
+ cgdl = 0 
+ cf = 1.4067e-012 
+ clc = 1e-007 
+ cle = 0.6 
+ dlc = 1.0494e-008+0.0+0.0 
+ dwc = 0+0.0 
+ vfbcv = -1 
+ acde = 0.4 
+ moin = 6.9 
+ noff = 3.4037 
+ voffcv = -0.17287 
+ ngate = 1e+023 
+ lwc = 0 
+ llc = 0 
+ lwlc = 0 
+ wlc = 0 
+ wwc = 0 
+ wwlc = 0 
// NEW BSIM4 Parameters(FET and DIODE capacitance parameters)
+ ckappas = 0.6 
+ cjs = 0.0013459 
+ mjs = 0.44 
+ pbs = 0.729 
+ cjsws = 3.6001e-011 
+ mjsws = 0.0009 
+ pbsws = 0.2 
+ cjswgs = 2.3347e-010 
+ mjswgs = 0.8000 
+ pbswgs = 0.95578 
//  
// STRESS PARAMETERS 
//  
+ saref = 1.04e-06
+ sbref = 1.04e-06
+ wlod = 0
+ kvth0 = 9.8e-9
+ lkvth0 = 0
+ wkvth0 = 0.2e-6
+ pkvth0 = 0
+ llodvth = 0
+ wlodvth = 1
+ stk2 = 0
+ lodk2 = 1
+ lodeta0 = 1
+ ku0 = -2.7e-08
+ lku0 = 0
+ wku0 = 0
+ pku0 = 0
+ llodku0 = 0
+ wlodku0 = 1
+ kvsat = 0.2
+ steta0 = 0
+ tku0 = 0
// *****
+)

.model nshort_model.2 nmos (
// 
// DC IV MOS PARAMETERS
// 
+ lmin = 9.95e-07 lmax = 1.005e-06 wmin = 9.95e-07 wmax = 1.005e-06
+ level = 54 
+ tnom = 30 
+ version = 4.5 
+ toxm = 4.148e-009 
+ xj = 1.5e-007 
+ lln = 1 
+ lwn = 1 
+ wln = 1 
+ wwn = 1 
+ lint = 1.1932e-008+0.0 
+ ll = 0 
+ lw = 0 
+ lwl = 0 
+ wint = 2.1859e-008+0.0 
+ wl = 0 
+ ww = 0 
+ wwl = 0 
+ xl = 0 
+ xw = 0 
+ mobmod = 0 
+ binunit = 2 
+ dwg = 0 
+ dwb = 0 
// NEW BSIM4 Parameters(Model Selectors)
+ igcmod = 0 
+ igbmod = 0 
+ rgatemod = 0 
+ rbodymod = 1 
+ trnqsmod = 0 
+ acnqsmod = 0 
+ fnoimod = 1 
+ tnoimod = 1 
+ permod = 1 
+ geomod = 0 
+ rdsmod = 0 
+ tempmod = 0 
// ******
// NEW BSIM4 Parameters(4.4 Version)
+ lintnoi = -1.0e-07 
+ vfbsdoff = 0 
+ lambda = 0 
+ vtl = 0 
+ lc = 5e-009 
+ xn = 3 
+ rnoia = 0.94
+ rnoib = 0.26
+ tnoia = 1.5e7
+ tnoib = 9.9e6
// NEW BSIM4 Parameters(Process Parameters)
+ epsrox = 3.9 
+ toxe = 4.148e-009 
+ dtox = 0 
+ ndep = 1.7e+017 
+ nsd = 1e+020 
+ rshg = 0.1 
// ***
+ rsh = 1 
// 
//  THRESHOLD VOLTAGE PARAMETERS
// 
+ vth0 = 0.57666+0.0 
+ k1 = 0.47926744 
+ k2 = -0.00734+0.0 
+ k3 = 2 
+ dvt0 = 0 
+ dvt1 = 0.53 
+ dvt2 = -0.032 
+ dvt0w = -3.58 
+ dvt1w = 1670600 
+ dvt2w = 0.068 
+ w0 = 0 
+ k3b = 0.54 
// NEW BSIM4 Parameters for Level 54
+ phin = 0 
+ lpe0 = 1.0325e-007 
+ lpeb = -7.082e-008 
+ vbm = -3 
+ dvtp0 = 0 
+ dvtp1 = 0 
// 
//  MOBILITY PARAMETERS
// 
+ vsat = 90000+0.0 
+ ua = -1.3915e-009+0.0 
+ ub = 1.9256e-018+0.0 
+ uc = 7.0144e-011 
+ rdsw = 65.968+0.0 
+ prwb = 0 
+ prwg = 0.021507 
+ wr = 1 
+ u0 = 0.024597+0.0 
+ a0 = 0.4182+0.0 
+ keta = 0.0095396+0.0 
+ a1 = 0 
+ a2 = 0.42385546 
+ ags = 0.72513+0.0 
+ b0 = 0+0.0 
+ b1 = 0+0.0 
// NEW BSIM4 Parameters(Mobility Parameters)
+ eu = 1.67 
+ rdswmin = 0 
+ rdw = 0 
+ rdwmin = 0 
+ rsw = 0 
+ rswmin = 0 
// ****
// 
//  SUBTHRESHOLD CURRENT PARAMETERS
// 
+ voff = -0.15134+0.0 
+ nfactor = 0.84726+0.0 
+ up = 0.0
+ ud = 0.0
+ lp = 1.0
+ tvfbsdoff = 0.0
+ tvoff = 0+0.0
+ cit = 0 
+ cdsc = 0 
+ cdscb = 0 
+ cdscd = 0.0054 
+ eta0 = 0.0025313+0.0 
+ etab = -0.084375 
+ dsub = 0.26 
// NEW BSIM4 Parameters(Sub-threshold parameters)
+ voffl = 5.8197729e-009 
+ minv = 0 
// ****
// 
//  ROUT PARAMETERS
// 
+ pclm = 0.68831+0.0 
+ pdiblc1 = 0.33870462 
+ pdiblc2 = 0.005806679 
+ pdiblcb = -0.04937254 
+ drout = 0.39729981 
+ pscbe1 = 8e+008 
+ pscbe2 = 1e-012 
+ pvag = 0 
+ delta = 0.01 
+ alpha0 = 2.88e-008 
+ alpha1 = 0.697 
+ beta0 = 13.86 
// NEW BSIM4 Parameters(ROUT Parameters)
+ fprout = 0 
+ pdits = 0+0.0 
+ pditsl = 0 
+ pditsd = 0+0.0 
// ***
// NEW BSIM4 Parameters(GATE INDUCED DRAIN LEAKAGE MODEL PARAMTERS)
+ agidl = 0 
+ bgidl = 2.3e+009 
+ cgidl = 0.5 
+ egidl = 0.8 
// ***
// NEW BSIM4 Parameters(Gate Leakage Current Parameters)
+ aigbacc = 1 
+ bigbacc = 0 
+ cigbacc = 0 
+ nigbacc = 0 
+ aigbinv = 0.35 
+ bigbinv = 0.03 
+ cigbinv = 0.006 
+ eigbinv = 1.1 
+ nigbinv = 0 
+ aigc = 0.43 
+ bigc = 0.054 
+ cigc = 0.075 
+ nigc = 0 
+ aigsd = 0.43 
+ bigsd = 0.054 
+ cigsd = 0.075 
+ dlcig = 0 
+ poxedge = 1 
+ pigcd = 1 
+ ntox = 1 
+ toxref = 4.148e-009 
// ****
// 
//  TEMPERATURE EFFECTS PARAMETERS
// 
+ kt1 = -0.25664+0.0 
+ kt2 = -0.036226822 
+ at = 85715 
+ ute = -1.0468 
+ ua1 = 1.2463e-009 
+ ub1 = -7.6772e-019 
+ uc1 = 1.8046812e-011 
+ kt1l = 0 
+ prt = 0 
// NEW BSIM4 Parameters(HIGH SPEED RF MODEL PARAMETERS)
+ xrcrg1 = 12 
+ xrcrg2 = 1 
+ rbpb = 50 
+ rbpd = 50 
+ rbps = 50 
+ rbdb = 50 
+ rbsb = 50 
+ gbmin = 1e-012 
// ***
// NEW BSIM4 Parameters(FLICKER and THERMAL NOISE PARAMETERS)
+ noia = 2.5e+42 
+ noib = 0.0 
+ noic = 0.0 
+ em = 4.1000000E+07 
+ af = 1 
+ ef = 0.84 
+ kf = 0 
+ ntnoi = 1 
// ****
// NEW BSIM4 Parameters(LAYOUT DEPENDENT PARASITIC MODEL PARAMETERS)
+ dmcg = 0 
+ dmcgt = 0 
+ dmdg = 0 
+ xgw = 0 
+ xgl = 0 
+ ngcon = 1 
// ***
// 
// DIODE DC IV PARAMTERS
// 
// NEW BSIM4 Parameters(DIODE DC IV parameters)
+ diomod = 1 
+ njs = 1.2928 
+ jss = 0.0027500000000000003 
+ jsws = 6e-10 
+ xtis = 2 
+ bvs = 11.7 
+ xjbvs = 1 
+ ijthsrev = 0.1 
+ ijthsfwd = 0.1 
// 
//  DIODE and FET CAPACITANCE PARAMETERS
// 
+ tpb = 0.0012287 
+ tpbsw = 0 
+ tpbswg = 0 
+ tcj = 0.000792 
+ tcjsw = 1e-005 
+ tcjswg = 0 
+ cgdo = 2.54e-010 
+ cgso = 2.54e-010 
+ cgbo = 1e-013 
+ capmod = 2 
+ xpart = 0 
+ cgsl = 0 
+ cgdl = 0 
+ cf = 1.4067e-012 
+ clc = 1e-007 
+ cle = 0.6 
+ dlc = 1.0494e-008+0.0+0.0 
+ dwc = 0+0.0 
+ vfbcv = -1 
+ acde = 0.4 
+ moin = 6.9 
+ noff = 3.4037 
+ voffcv = -0.17287 
+ ngate = 1e+023 
+ lwc = 0 
+ llc = 0 
+ lwlc = 0 
+ wlc = 0 
+ wwc = 0 
+ wwlc = 0 
// NEW BSIM4 Parameters(FET and DIODE capacitance parameters)
+ ckappas = 0.6 
+ cjs = 0.0013459 
+ mjs = 0.44 
+ pbs = 0.729 
+ cjsws = 3.6001e-011 
+ mjsws = 0.0009 
+ pbsws = 0.2 
+ cjswgs = 2.3347e-010 
+ mjswgs = 0.8000 
+ pbswgs = 0.95578 
//  
// STRESS PARAMETERS 
//  
+ saref = 2.75e-06
+ sbref = 2.74e-06
+ wlod = 0
+ kvth0 = 9.8e-9
+ lkvth0 = 0
+ wkvth0 = 0.2e-6
+ pkvth0 = 0
+ llodvth = 0
+ wlodvth = 1
+ stk2 = 0
+ lodk2 = 1
+ lodeta0 = 1
+ ku0 = -2.7e-08
+ lku0 = 0
+ wku0 = 0
+ pku0 = 0
+ llodku0 = 0
+ wlodku0 = 1
+ kvsat = 0.2
+ steta0 = 0
+ tku0 = 0
// *****
+)

.model nshort_model.3 nmos (
// 
// DC IV MOS PARAMETERS
// 
+ lmin = 1.995e-06 lmax = 2.005e-06 wmin = 9.95e-07 wmax = 1.005e-06
+ level = 54 
+ tnom = 30 
+ version = 4.5 
+ toxm = 4.148e-009 
+ xj = 1.5e-007 
+ lln = 1 
+ lwn = 1 
+ wln = 1 
+ wwn = 1 
+ lint = 1.1932e-008+0.0 
+ ll = 0 
+ lw = 0 
+ lwl = 0 
+ wint = 2.1859e-008+0.0 
+ wl = 0 
+ ww = 0 
+ wwl = 0 
+ xl = 0 
+ xw = 0 
+ mobmod = 0 
+ binunit = 2 
+ dwg = 0 
+ dwb = 0 
// NEW BSIM4 Parameters(Model Selectors)
+ igcmod = 0 
+ igbmod = 0 
+ rgatemod = 0 
+ rbodymod = 1 
+ trnqsmod = 0 
+ acnqsmod = 0 
+ fnoimod = 1 
+ tnoimod = 1 
+ permod = 1 
+ geomod = 0 
+ rdsmod = 0 
+ tempmod = 0 
// ******
// NEW BSIM4 Parameters(4.4 Version)
+ lintnoi = -1.0e-07 
+ vfbsdoff = 0 
+ lambda = 0 
+ vtl = 0 
+ lc = 5e-009 
+ xn = 3 
+ rnoia = 0.94
+ rnoib = 0.26
+ tnoia = 1.5e7
+ tnoib = 9.9e6
// NEW BSIM4 Parameters(Process Parameters)
+ epsrox = 3.9 
+ toxe = 4.148e-009 
+ dtox = 0 
+ ndep = 1.7e+017 
+ nsd = 1e+020 
+ rshg = 0.1 
// ***
+ rsh = 1 
// 
//  THRESHOLD VOLTAGE PARAMETERS
// 
+ vth0 = 0.55639+0.0 
+ k1 = 0.53942222 
+ k2 = -0.02714132+0.0 
+ k3 = 2 
+ dvt0 = 0 
+ dvt1 = 0.53 
+ dvt2 = -0.032 
+ dvt0w = -3.58 
+ dvt1w = 1670600 
+ dvt2w = 0.068 
+ w0 = 0 
+ k3b = 0.54 
// NEW BSIM4 Parameters for Level 54
+ phin = 0 
+ lpe0 = 1.0325e-007 
+ lpeb = -7.082e-008 
+ vbm = -3 
+ dvtp0 = 0 
+ dvtp1 = 0 
// 
//  MOBILITY PARAMETERS
// 
+ vsat = 80000+0.0 
+ ua = -1.1570455e-009+0.0 
+ ub = 1.8354e-018+0.0 
+ uc = 5.4094e-011 
+ rdsw = 65.968+0.0 
+ prwb = 0 
+ prwg = 0.021507 
+ wr = 1 
+ u0 = 0.02701+0.0 
+ a0 = 1.008+0.0 
+ keta = -0.0088430972+0.0 
+ a1 = 0 
+ a2 = 0.42385546 
+ ags = 0.50628+0.0 
+ b0 = 0+0.0 
+ b1 = 0+0.0 
// NEW BSIM4 Parameters(Mobility Parameters)
+ eu = 1.67 
+ rdswmin = 0 
+ rdw = 0 
+ rdwmin = 0 
+ rsw = 0 
+ rswmin = 0 
// ****
// 
//  SUBTHRESHOLD CURRENT PARAMETERS
// 
+ voff = -0.12584821+0.0 
+ nfactor = 1.5798554+0.0 
+ up = 0.0
+ ud = 0.0
+ lp = 1.0
+ tvfbsdoff = 0.0
+ tvoff = 0+0.0
+ cit = 0 
+ cdsc = 0 
+ cdscb = 0 
+ cdscd = 0.0054 
+ eta0 = 0.08+0.0 
+ etab = -0.07 
+ dsub = 0.56 
// NEW BSIM4 Parameters(Sub-threshold parameters)
+ voffl = 5.8197729e-009 
+ minv = 0 
// ****
// 
//  ROUT PARAMETERS
// 
+ pclm = 0.55709+0.0 
+ pdiblc1 = 0.39 
+ pdiblc2 = 0.0052969163 
+ pdiblcb = -0.025 
+ drout = 0.56 
+ pscbe1 = 8e+008 
+ pscbe2 = 1e-012 
+ pvag = 0 
+ delta = 0.01 
+ alpha0 = 3e-008 
+ alpha1 = 0.85 
+ beta0 = 13.86 
// NEW BSIM4 Parameters(ROUT Parameters)
+ fprout = 0 
+ pdits = 0+0.0 
+ pditsl = 0 
+ pditsd = 0+0.0 
// ***
// NEW BSIM4 Parameters(GATE INDUCED DRAIN LEAKAGE MODEL PARAMTERS)
+ agidl = 0 
+ bgidl = 2.3e+009 
+ cgidl = 0.5 
+ egidl = 0.8 
// ***
// NEW BSIM4 Parameters(Gate Leakage Current Parameters)
+ aigbacc = 1 
+ bigbacc = 0 
+ cigbacc = 0 
+ nigbacc = 0 
+ aigbinv = 0.35 
+ bigbinv = 0.03 
+ cigbinv = 0.006 
+ eigbinv = 1.1 
+ nigbinv = 0 
+ aigc = 0.43 
+ bigc = 0.054 
+ cigc = 0.075 
+ nigc = 0 
+ aigsd = 0.43 
+ bigsd = 0.054 
+ cigsd = 0.075 
+ dlcig = 0 
+ poxedge = 1 
+ pigcd = 1 
+ ntox = 1 
+ toxref = 4.148e-009 
// ****
// 
//  TEMPERATURE EFFECTS PARAMETERS
// 
+ kt1 = -0.29168+0.0 
+ kt2 = -0.017698782 
+ at = 111200 
+ ute = -0.42247 
+ ua1 = 3.6107e-009 
+ ub1 = -2.7362e-018 
+ uc1 = -3.0219439e-011 
+ kt1l = 0 
+ prt = 0 
// NEW BSIM4 Parameters(HIGH SPEED RF MODEL PARAMETERS)
+ xrcrg1 = 12 
+ xrcrg2 = 1 
+ rbpb = 50 
+ rbpd = 50 
+ rbps = 50 
+ rbdb = 50 
+ rbsb = 50 
+ gbmin = 1e-012 
// ***
// NEW BSIM4 Parameters(FLICKER and THERMAL NOISE PARAMETERS)
+ noia = 2.5e+42 
+ noib = 0.0 
+ noic = 0.0 
+ em = 4.1000000E+07 
+ af = 1 
+ ef = 0.84 
+ kf = 0 
+ ntnoi = 1 
// ****
// NEW BSIM4 Parameters(LAYOUT DEPENDENT PARASITIC MODEL PARAMETERS)
+ dmcg = 0 
+ dmcgt = 0 
+ dmdg = 0 
+ xgw = 0 
+ xgl = 0 
+ ngcon = 1 
// ***
// 
// DIODE DC IV PARAMTERS
// 
// NEW BSIM4 Parameters(DIODE DC IV parameters)
+ diomod = 1 
+ njs = 1.2928 
+ jss = 0.0027500000000000003 
+ jsws = 6e-10 
+ xtis = 2 
+ bvs = 11.7 
+ xjbvs = 1 
+ ijthsrev = 0.1 
+ ijthsfwd = 0.1 
// 
//  DIODE and FET CAPACITANCE PARAMETERS
// 
+ tpb = 0.0012287 
+ tpbsw = 0 
+ tpbswg = 0 
+ tcj = 0.000792 
+ tcjsw = 1e-005 
+ tcjswg = 0 
+ cgdo = 2.54e-010 
+ cgso = 2.54e-010 
+ cgbo = 1e-013 
+ capmod = 2 
+ xpart = 0 
+ cgsl = 0 
+ cgdl = 0 
+ cf = 1.4067e-012 
+ clc = 1e-007 
+ cle = 0.6 
+ dlc = 1.0494e-008+0.0+0.0 
+ dwc = 0+0.0 
+ vfbcv = -1 
+ acde = 0.4 
+ moin = 6.9 
+ noff = 3.4037 
+ voffcv = -0.17287 
+ ngate = 1e+023 
+ lwc = 0 
+ llc = 0 
+ lwlc = 0 
+ wlc = 0 
+ wwc = 0 
+ wwlc = 0 
// NEW BSIM4 Parameters(FET and DIODE capacitance parameters)
+ ckappas = 0.6 
+ cjs = 0.0013459 
+ mjs = 0.44 
+ pbs = 0.729 
+ cjsws = 3.6001e-011 
+ mjsws = 0.0009 
+ pbsws = 0.2 
+ cjswgs = 2.3347e-010 
+ mjswgs = 0.8000 
+ pbswgs = 0.95578 
//  
// STRESS PARAMETERS 
//  
+ saref = 3.0e-06
+ sbref = 3.0e-06
+ wlod = 0
+ kvth0 = 9.8e-9
+ lkvth0 = 0
+ wkvth0 = 0.2e-6
+ pkvth0 = 0
+ llodvth = 0
+ wlodvth = 1
+ stk2 = 0
+ lodk2 = 1
+ lodeta0 = 1
+ ku0 = -2.7e-08
+ lku0 = 0
+ wku0 = 0
+ pku0 = 0
+ llodku0 = 0
+ wlodku0 = 1
+ kvsat = 0.2
+ steta0 = 0
+ tku0 = 0
// *****
+)

.model nshort_model.4 nmos (
// 
// DC IV MOS PARAMETERS
// 
+ lmin = 3.995e-06 lmax = 4.005e-06 wmin = 9.95e-07 wmax = 1.005e-06
+ level = 54 
+ tnom = 30 
+ version = 4.5 
+ toxm = 4.148e-009 
+ xj = 1.5e-007 
+ lln = 1 
+ lwn = 1 
+ wln = 1 
+ wwn = 1 
+ lint = 1.1932e-008+0.0 
+ ll = 0 
+ lw = 0 
+ lwl = 0 
+ wint = 2.1859e-008+0.0 
+ wl = 0 
+ ww = 0 
+ wwl = 0 
+ xl = 0 
+ xw = 0 
+ mobmod = 0 
+ binunit = 2 
+ dwg = 0 
+ dwb = 0 
// NEW BSIM4 Parameters(Model Selectors)
+ igcmod = 0 
+ igbmod = 0 
+ rgatemod = 0 
+ rbodymod = 1 
+ trnqsmod = 0 
+ acnqsmod = 0 
+ fnoimod = 1 
+ tnoimod = 1 
+ permod = 1 
+ geomod = 0 
+ rdsmod = 0 
+ tempmod = 0 
// ******
// NEW BSIM4 Parameters(4.4 Version)
+ lintnoi = -1.0e-07 
+ vfbsdoff = 0 
+ lambda = 0 
+ vtl = 0 
+ lc = 5e-009 
+ xn = 3 
+ rnoia = 0.94
+ rnoib = 0.26
+ tnoia = 1.5e7
+ tnoib = 9.9e6
// NEW BSIM4 Parameters(Process Parameters)
+ epsrox = 3.9 
+ toxe = 4.148e-009 
+ dtox = 0 
+ ndep = 1.7e+017 
+ nsd = 1e+020 
+ rshg = 0.1 
// ***
+ rsh = 1 
// 
//  THRESHOLD VOLTAGE PARAMETERS
// 
+ vth0 = 0.54021+0.0 
+ k1 = 0.49025322 
+ k2 = -0.012213166+0.0 
+ k3 = 2 
+ dvt0 = 0 
+ dvt1 = 0.53 
+ dvt2 = -0.032 
+ dvt0w = -3.58 
+ dvt1w = 1670600 
+ dvt2w = 0.068 
+ w0 = 0 
+ k3b = 0.54 
// NEW BSIM4 Parameters for Level 54
+ phin = 0 
+ lpe0 = 1.0325e-007 
+ lpeb = -7.082e-008 
+ vbm = -3 
+ dvtp0 = 0 
+ dvtp1 = 0 
// 
//  MOBILITY PARAMETERS
// 
+ vsat = 80000+0.0 
+ ua = -7.0340514e-010+0.0 
+ ub = 1.391e-018+0.0 
+ uc = 2.5377e-011 
+ rdsw = 65.968+0.0 
+ prwb = 0 
+ prwg = 0.021507 
+ wr = 1 
+ u0 = 0.02967+0.0 
+ a0 = 1.2+0.0 
+ keta = 0.0097600722+0.0 
+ a1 = 0 
+ a2 = 0.42385546 
+ ags = 0.3478+0.0 
+ b0 = 0+0.0 
+ b1 = 0+0.0 
// NEW BSIM4 Parameters(Mobility Parameters)
+ eu = 1.67 
+ rdswmin = 0 
+ rdw = 0 
+ rdwmin = 0 
+ rsw = 0 
+ rswmin = 0 
// ****
// 
//  SUBTHRESHOLD CURRENT PARAMETERS
// 
+ voff = -0.1060102+0.0 
+ nfactor = 1.8+0.0 
+ up = 0.0
+ ud = 0.0
+ lp = 1.0
+ tvfbsdoff = 0.0
+ tvoff = 0+0.0
+ cit = 0 
+ cdsc = 0 
+ cdscb = 0 
+ cdscd = 0.0054 
+ eta0 = 0.08+0.0 
+ etab = -0.07 
+ dsub = 0.56 
// NEW BSIM4 Parameters(Sub-threshold parameters)
+ voffl = 5.8197729e-009 
+ minv = 0 
// ****
// 
//  ROUT PARAMETERS
// 
+ pclm = 0.53316+0.0 
+ pdiblc1 = 0.39 
+ pdiblc2 = 0.0033446417 
+ pdiblcb = -0.025 
+ drout = 0.56 
+ pscbe1 = 7.452285e+008 
+ pscbe2 = 1e-012 
+ pvag = 0 
+ delta = 0.01 
+ alpha0 = 3e-008 
+ alpha1 = 0.85 
+ beta0 = 13.86 
// NEW BSIM4 Parameters(ROUT Parameters)
+ fprout = 0 
+ pdits = 0+0.0 
+ pditsl = 0 
+ pditsd = 0+0.0 
// ***
// NEW BSIM4 Parameters(GATE INDUCED DRAIN LEAKAGE MODEL PARAMTERS)
+ agidl = 0 
+ bgidl = 2.3e+009 
+ cgidl = 0.5 
+ egidl = 0.8 
// ***
// NEW BSIM4 Parameters(Gate Leakage Current Parameters)
+ aigbacc = 1 
+ bigbacc = 0 
+ cigbacc = 0 
+ nigbacc = 0 
+ aigbinv = 0.35 
+ bigbinv = 0.03 
+ cigbinv = 0.006 
+ eigbinv = 1.1 
+ nigbinv = 0 
+ aigc = 0.43 
+ bigc = 0.054 
+ cigc = 0.075 
+ nigc = 0 
+ aigsd = 0.43 
+ bigsd = 0.054 
+ cigsd = 0.075 
+ dlcig = 0 
+ poxedge = 1 
+ pigcd = 1 
+ ntox = 1 
+ toxref = 4.148e-009 
// ****
// 
//  TEMPERATURE EFFECTS PARAMETERS
// 
+ kt1 = -0.29371+0.0 
+ kt2 = -0.020698378 
+ at = 140000 
+ ute = -1.0855 
+ ua1 = 1.4555e-009 
+ ub1 = -9.4827e-019 
+ uc1 = -1.8284811e-011 
+ kt1l = 0 
+ prt = 0 
// NEW BSIM4 Parameters(HIGH SPEED RF MODEL PARAMETERS)
+ xrcrg1 = 12 
+ xrcrg2 = 1 
+ rbpb = 50 
+ rbpd = 50 
+ rbps = 50 
+ rbdb = 50 
+ rbsb = 50 
+ gbmin = 1e-012 
// ***
// NEW BSIM4 Parameters(FLICKER and THERMAL NOISE PARAMETERS)
+ noia = 2.5e+42 
+ noib = 0.0 
+ noic = 0.0 
+ em = 4.1000000E+07 
+ af = 1 
+ ef = 0.84 
+ kf = 0 
+ ntnoi = 1 
// ****
// NEW BSIM4 Parameters(LAYOUT DEPENDENT PARASITIC MODEL PARAMETERS)
+ dmcg = 0 
+ dmcgt = 0 
+ dmdg = 0 
+ xgw = 0 
+ xgl = 0 
+ ngcon = 1 
// ***
// 
// DIODE DC IV PARAMTERS
// 
// NEW BSIM4 Parameters(DIODE DC IV parameters)
+ diomod = 1 
+ njs = 1.2928 
+ jss = 0.0027500000000000003 
+ jsws = 6e-10 
+ xtis = 2 
+ bvs = 11.7 
+ xjbvs = 1 
+ ijthsrev = 0.1 
+ ijthsfwd = 0.1 
// 
//  DIODE and FET CAPACITANCE PARAMETERS
// 
+ tpb = 0.0012287 
+ tpbsw = 0 
+ tpbswg = 0 
+ tcj = 0.000792 
+ tcjsw = 1e-005 
+ tcjswg = 0 
+ cgdo = 2.54e-010 
+ cgso = 2.54e-010 
+ cgbo = 1e-013 
+ capmod = 2 
+ xpart = 0 
+ cgsl = 0 
+ cgdl = 0 
+ cf = 1.4067e-012 
+ clc = 1e-007 
+ cle = 0.6 
+ dlc = 1.0494e-008+0.0+0.0 
+ dwc = 0+0.0 
+ vfbcv = -1 
+ acde = 0.4 
+ moin = 6.9 
+ noff = 3.4037 
+ voffcv = -0.17287 
+ ngate = 1e+023 
+ lwc = 0 
+ llc = 0 
+ lwlc = 0 
+ wlc = 0 
+ wwc = 0 
+ wwlc = 0 
// NEW BSIM4 Parameters(FET and DIODE capacitance parameters)
+ ckappas = 0.6 
+ cjs = 0.0013459 
+ mjs = 0.44 
+ pbs = 0.729 
+ cjsws = 3.6001e-011 
+ mjsws = 0.0009 
+ pbsws = 0.2 
+ cjswgs = 2.3347e-010 
+ mjswgs = 0.8000 
+ pbswgs = 0.95578 
//  
// STRESS PARAMETERS 
//  
+ saref = 3.0e-06
+ sbref = 3.0e-06
+ wlod = 0
+ kvth0 = 9.8e-9
+ lkvth0 = 0
+ wkvth0 = 0.2e-6
+ pkvth0 = 0
+ llodvth = 0
+ wlodvth = 1
+ stk2 = 0
+ lodk2 = 1
+ lodeta0 = 1
+ ku0 = -2.7e-08
+ lku0 = 0
+ wku0 = 0
+ pku0 = 0
+ llodku0 = 0
+ wlodku0 = 1
+ kvsat = 0.2
+ steta0 = 0
+ tku0 = 0
// *****
+)

.model nshort_model.5 nmos (
// 
// DC IV MOS PARAMETERS
// 
+ lmin = 7.995e-06 lmax = 8.005e-06 wmin = 9.95e-07 wmax = 1.005e-06
+ level = 54 
+ tnom = 30 
+ version = 4.5 
+ toxm = 4.148e-009 
+ xj = 1.5e-007 
+ lln = 1 
+ lwn = 1 
+ wln = 1 
+ wwn = 1 
+ lint = 1.1932e-008+0.0 
+ ll = 0 
+ lw = 0 
+ lwl = 0 
+ wint = 2.1859e-008+0.0 
+ wl = 0 
+ ww = 0 
+ wwl = 0 
+ xl = 0 
+ xw = 0 
+ mobmod = 0 
+ binunit = 2 
+ dwg = 0 
+ dwb = 0 
// NEW BSIM4 Parameters(Model Selectors)
+ igcmod = 0 
+ igbmod = 0 
+ rgatemod = 0 
+ rbodymod = 1 
+ trnqsmod = 0 
+ acnqsmod = 0 
+ fnoimod = 1 
+ tnoimod = 1 
+ permod = 1 
+ geomod = 0 
+ rdsmod = 0 
+ tempmod = 0 
// ******
// NEW BSIM4 Parameters(4.4 Version)
+ lintnoi = -1.0e-07 
+ vfbsdoff = 0 
+ lambda = 0 
+ vtl = 0 
+ lc = 5e-009 
+ xn = 3 
+ rnoia = 0.94
+ rnoib = 0.26
+ tnoia = 1.5e7
+ tnoib = 9.9e6
// NEW BSIM4 Parameters(Process Parameters)
+ epsrox = 3.9 
+ toxe = 4.148e-009 
+ dtox = 0 
+ ndep = 1.7e+017 
+ nsd = 1e+020 
+ rshg = 0.1 
// ***
+ rsh = 1 
// 
//  THRESHOLD VOLTAGE PARAMETERS
// 
+ vth0 = 0.53654+0.0 
+ k1 = 0.47351598 
+ k2 = -0.0058110531+0.0 
+ k3 = 2 
+ dvt0 = 0 
+ dvt1 = 0.53 
+ dvt2 = -0.032 
+ dvt0w = -3.58 
+ dvt1w = 1670600 
+ dvt2w = 0.068 
+ w0 = 0 
+ k3b = 0.54 
// NEW BSIM4 Parameters for Level 54
+ phin = 0 
+ lpe0 = 1.0325e-007 
+ lpeb = -7.082e-008 
+ vbm = -3 
+ dvtp0 = 0 
+ dvtp1 = 0 
// 
//  MOBILITY PARAMETERS
// 
+ vsat = 80000+0.0 
+ ua = -6.6692005e-010+0.0 
+ ub = 1.3895e-018+0.0 
+ uc = 2.5799e-011 
+ rdsw = 65.968+0.0 
+ prwb = 0 
+ prwg = 0.021507 
+ wr = 1 
+ u0 = 0.030717+0.0 
+ a0 = 1.32+0.0 
+ keta = -0.0015333577+0.0 
+ a1 = 0 
+ a2 = 0.42385546 
+ ags = 0.36348+0.0 
+ b0 = 0+0.0 
+ b1 = 0+0.0 
// NEW BSIM4 Parameters(Mobility Parameters)
+ eu = 1.67 
+ rdswmin = 0 
+ rdw = 0 
+ rdwmin = 0 
+ rsw = 0 
+ rswmin = 0 
// ****
// 
//  SUBTHRESHOLD CURRENT PARAMETERS
// 