* Copyright 2020 The SkyWater PDK Authors
*
* Licensed under the Apache License, Version 2.0 (the "License");
* you may not use this file except in compliance with the License.
* You may obtain a copy of the License at
*
*     https://www.apache.org/licenses/LICENSE-2.0
*
* Unless required by applicable law or agreed to in writing, software
* distributed under the License is distributed on an "AS IS" BASIS,
* WITHOUT WARRANTIES OR CONDITIONS OF ANY KIND, either express or implied.
* See the License for the specific language governing permissions and
* limitations under the License.
*
* SPDX-License-Identifier: Apache-2.0
*Auto-converted ../spectremodels/pshort.pm3 by model_spectre_mismatchmaker.rb
//  converted from amsmodels_s8x/pshort.pm3
*simulator lang=spectre
//  BSIMTran Version 0.1.24, Created on 4-26-2002
//  Username: hai
//  Command Line: /home/hai/config/cydir/bin/lnx86/bsimtran pmos_bsim4.rf pmos -p -npshort pshort_modelnamechanged.pm3 pshort-overlap.pm PDIV1.PMD pdcv1.pm pshort_bsimtranoutput.pm3 
//  Working Directory: /home/hai/models/s8/s8tee/models.3.1/pshort/combined
//  Time: Sun Jun 10 17:40:56 2007
//  Rule File:  pmos_bsim4.rf
//  Output File:  pshort_bsimtranoutput.pm3
//  Input Files:
//  (1) pshort_modelnamechanged.pm3
//  (2) pshort-overlap.pm
//  (3) PDIV1.PMD
//  (4) pdcv1.pm
// BSIM3.V3 PMOS Model
// spectre mismatch params here
//parameters pshort_lint_slope_spectre = 0.0
//parameters pshort_wint_slope_spectre = 0.0
*parameters pshort_toxe_slope_spectre = 0.0
*parameters pshort_vth0_slope_spectre = 0.0
*parameters pshort_voff_slope_spectre = 0.0
*parameters pshort_nfactor_slope_spectre = 0.0
*statistics {
  *process {
*  }
  *mismatch {
//    vary pshort_lint_slope_spectre dist=gauss std = 1.0
//    vary pshort_wint_slope_spectre dist=gauss std = 1.0
*    vary 0.0 dist=gauss std = 1.0
*    vary 0.0 dist=gauss std = 1.0
*    vary 0.0 dist=gauss std = 1.0
*    vary 0.0 dist=gauss std = 1.0
*  }
*}
*inline subckt pshort (d g s b)
*parameters l = 1 w = 1 ad = 0 as = 0 pd = 0 ps = 0 nrd = 0 nrs = 0 sa = 0 sb = 0 sd = 0 mult = 1 nf = 1
*pshort (d g s b) pshort_model 1 = 1 w = w ad = ad as = as pd = pd ps = ps nrd = nrd nrs = nrs sa = sa sb = sb sd = sd nf = nf
*model pshort_model bsim4 {
.model pshort_model.0 pmos (
// 
// DC IV MOS PARAMETERS
// 
+ lmin = 1.45e-07 lmax = 1.55e-07 wmin = 1.255e-06 wmax = 1.265e-06
+ level = 54 
+ tnom = 30 
+ version = 4.5 
+ toxm = 4.23e-009 
+ xj = 1.5e-007 
+ lln = 1 
+ lwn = 1 
+ wln = 1 
+ wwn = 1 
+ lint = -1.3994e-008+0.0 
+ ll = 0 
+ lw = 0 
+ lwl = 0 
+ wint = 7.3039e-009+0.0 
+ wl = 0 
+ ww = 0 
+ wwl = 0 
+ xl = 0 
+ xw = 0 
+ mobmod = 0 
+ binunit = 2 
+ dwg = -5.722e-009 
+ dwb = -1.7864e-008 
// NEW BSIM4 Parameters(Model Selectors)
+ igcmod = 0 
+ igbmod = 0 
+ rgatemod = 0 
+ rbodymod = 1 
+ trnqsmod = 0 
+ acnqsmod = 0 
+ fnoimod = 1 
+ tnoimod = 1 
+ permod = 1 
+ geomod = 0 
+ rdsmod = 0 
+ tempmod = 0 
// ******
// NEW BSIM4 Parameters(4.4 Version)
+ lintnoi = -2.0e-07 
+ vfbsdoff = 0 
+ lambda = 0 
+ vtl = 0 
+ lc = 5e-009 
+ xn = 3 
+ rnoia = 0.69 
+ rnoib = 0.34 
+ tnoia = 25e6 
+ tnoib = 0.0e-6 
// NEW BSIM4 Parameters(Process Parameters)
+ epsrox = 3.9 
+ toxe = 4.23e-009 
+ dtox = 0 
+ ndep = 1.7e+017 
+ nsd = 1e+020 
+ rshg = 0.1 
// ***
+ rsh = 1 
// 
//  THRESHOLD VOLTAGE PARAMETERS
// 
+ vth0 = -1.0652+0.0 
+ k1 = 1.3152469 
+ k2 = -0.27798063+0.0 
+ k3 = -15.845 
+ dvt0 = 4.4955 
+ dvt1 = 0.294 
+ dvt2 = 0.015 
+ dvt0w = -4.9772 
+ dvt1w = 1147200 
+ dvt2w = -0.00896 
+ w0 = 0 
+ k3b = 2 
// NEW BSIM4 Parameters for Level 54
+ phin = 0 
+ lpe0 = 0 
+ lpeb = 0 
+ vbm = -3 
+ dvtp0 = 0 
+ dvtp1 = 0 
// 
//  MOBILITY PARAMETERS
// 
+ vsat = 68611+0.0 
+ ua = -2.4423e-009+0.0 
+ ub = 2.0699352e-018+0.0 
+ uc = 1.6133739e-013 
+ rdsw = 547.88+0.0 
+ prwb = -0.32348 
+ prwg = 0.1376 
+ wr = 1 
+ u0 = 0.0025134+0.0 
+ a0 = 0.91285081+0.0 
+ keta = -0.020464881+0.0 
+ a1 = 0 
+ a2 = 0.87366558 
+ ags = 1.25+0.0 
+ b0 = 0+0.0 
+ b1 = 0+0.0 
// NEW BSIM4 Parameters(Mobility Parameters)
+ eu = 1.67 
+ rdswmin = 0 
+ rdw = 0 
+ rdwmin = 0 
+ rsw = 0 
+ rswmin = 0 
// ****
// 
//  SUBTHRESHOLD CURRENT PARAMETERS
// 
+ voff = -0.25076476+0.0 
+ nfactor = 1.9+0.0 
+ up = 0.0
+ ud = 0.0
+ lp = 1.0
+ tvfbsdoff = 0.0
+ tvoff = 0+0.0
+ cit = 1e-005 
+ cdsc = 0.00013 
+ cdscb = 0.00078 
+ cdscd = 0 
+ eta0 = 0.21064695+0.0 
+ etab = -0.014728557 
+ dsub = 0.26 
// NEW BSIM4 Parameters(Sub-threshold parameters)
+ voffl = 0 
+ minv = 0 
// ****
// 
//  ROUT PARAMETERS
// 
+ pclm = 0.61630162+0.0 
+ pdiblc1 = 0.14215108 
+ pdiblc2 = 0.0026509038 
+ pdiblcb = -0.15188768 
+ drout = 1 
+ pscbe1 = 8e+008 
+ pscbe2 = 9.1788025e-009 
+ pvag = 0 
+ delta = 0.01 
+ alpha0 = 1e-010 
+ alpha1 = 1e-010 
+ beta0 = 7.9381315 
// NEW BSIM4 Parameters(ROUT Parameters)
+ fprout = 0 
+ pdits = 0+0.0 
+ pditsl = 0 
+ pditsd = 0+0.0 
// ***
// NEW BSIM4 Parameters(GATE INDUCED DRAIN LEAKAGE MODEL PARAMTERS)
+ agidl = 4.0078966e-010+0.0 
+ bgidl = 1e009+0.0 
+ cgidl = 300+0.0 
+ egidl = 0.1 
// ***
// NEW BSIM4 Parameters(Gate Leakage Current Parameters)
+ aigbacc = 0.43 
+ bigbacc = 0.054 
+ cigbacc = 0.075 
+ nigbacc = 1 
+ aigbinv = 0.35 
+ bigbinv = 0.03 
+ cigbinv = 0.006 
+ eigbinv = 1.1 
+ nigbinv = 3 
+ aigc = 0.43 
+ bigc = 0.054 
+ cigc = 0.075 
+ nigc = 1 
+ aigsd = 0.43 
+ bigsd = 0.054 
+ cigsd = 0.075 
+ dlcig = 0 
+ poxedge = 1 
+ pigcd = 1 
+ ntox = 1 
+ toxref = 4.23e-009 
// ****
// 
//  TEMPERATURE EFFECTS PARAMETERS
// 
+ kt1 = -0.70976+0.0 
+ kt2 = -0.12 
+ at = 50942 
+ ute = -0.21243 
+ ua1 = 1.8303e-010 
+ ub1 = 3.6891e-019 
+ uc1 = 6.4484e-012 
+ kt1l = 0 
+ prt = 0 
// NEW BSIM4 Parameters(HIGH SPEED RF MODEL PARAMETERS)
+ xrcrg1 = 12 
+ xrcrg2 = 1 
+ rbpb = 50 
+ rbpd = 50 
+ rbps = 50 
+ rbdb = 50 
+ rbsb = 50 
+ gbmin = 1e-012 
// ***
// NEW BSIM4 Parameters(FLICKER and THERMAL NOISE PARAMETERS)
+ noia = 1.5e+42 
+ noib = 0.0 
+ noic = 0.0 
+ em = 4.1000000E+07 
+ af = 1 
+ ef = 1.0 
+ kf = 0 
+ ntnoi = 1 
// ****
// NEW BSIM4 Parameters(LAYOUT DEPENDENT PARASITIC MODEL PARAMETERS)
+ dmcg = 0 
+ dmcgt = 0 
+ dmdg = 0 
+ xgw = 0 
+ xgl = 0 
+ ngcon = 1 
// ***
// 
// DIODE DC IV PARAMTERS
// 
// NEW BSIM4 Parameters(DIODE DC IV parameters)
+ diomod = 1 
+ njs = 1.3632 
+ jss = 2.1483e-05 
+ jsws = 8.040000000000001e-10 
+ xtis = 5.2 
+ bvs = 12.69 
+ xjbvs = 1 
+ ijthsrev = 0.1 
+ ijthsfwd = 0.1 
// 
//  DIODE and FET CAPACITANCE PARAMETERS
// 
+ tpb = 0.0020386 
+ tpbsw = 0.001246 
+ tpbswg = 0 
+ tcj = 0.0012407 
+ tcjsw = 0.00037357 
+ tcjswg = 2e-012 
+ cgdo = 5.5e-11 
+ cgso = 5.5e-11 
+ cgbo = 0 
+ capmod = 2 
+ xpart = 0 
+ cgsl = 1.0005e-011 
+ cgdl = 1.0005e-011 
+ cf = 1.2e-011 
+ clc = 1e-007 
+ cle = 0.6 
+ dlc = -3e-09+0.0+0.0 
+ dwc = 0+0.0 
+ vfbcv = -0.14469 
+ acde = 0.8 
+ moin = 18.13 
+ noff = 3.9 
+ voffcv = -0.10701 
+ ngate = 1e+023 
+ lwc = 0 
+ llc = 0 
+ lwlc = 0 
+ wlc = 0 
+ wwc = 0 
+ wwlc = 0 
// NEW BSIM4 Parameters(FET and DIODE capacitance parameters)
+ ckappas = 0.6 
+ cjs = 0.00074079 
+ mjs = 0.34629 
+ pbs = 0.6587 
+ cjsws = 9.88e-011 
+ mjsws = 0.29781 
+ pbsws = 0.7418 
+ cjswgs = 2.3894e-010 
+ mjswgs = 0.9274 
+ pbswgs = 1.4338 
//  
// STRESS PARAMETERS 
//  
+ saref = 1.04e-06
+ sbref = 1.04e-06
+ wlod = 0+0.0
+ kvth0 = 0+0.0
+ lkvth0 = 0+0.0
+ wkvth0 = 0+0.0
+ pkvth0 = 0
+ llodvth = 0
+ wlodvth = 1
+ stk2 = 0
+ lodk2 = 1
+ lodeta0 = 1
+ ku0 = 0+0.0
+ lku0 = 0+0.0
+ wku0 = 0+0.0
+ pku0 = 0
+ llodku0 = 0
+ wlodku0 = 1
+ kvsat = 0+0.0
+ steta0 = 0
+ tku0 = 0
// *****
+)

.model pshort_model.1 pmos (
// 
// DC IV MOS PARAMETERS
// 
+ lmin = 1.45e-07 lmax = 1.55e-07 wmin = 1.675e-06 wmax = 1.685e-06
+ level = 54 
+ tnom = 30 
+ version = 4.5 
+ toxm = 4.23e-009 
+ xj = 1.5e-007 
+ lln = 1 
+ lwn = 1 
+ wln = 1 
+ wwn = 1 
+ lint = -1.3994e-008+0.0 
+ ll = 0 
+ lw = 0 
+ lwl = 0 
+ wint = 7.3039e-009+0.0 
+ wl = 0 
+ ww = 0 
+ wwl = 0 
+ xl = 0 
+ xw = 0 
+ mobmod = 0 
+ binunit = 2 
+ dwg = -5.722e-009 
+ dwb = -1.7864e-008 
// NEW BSIM4 Parameters(Model Selectors)
+ igcmod = 0 
+ igbmod = 0 
+ rgatemod = 0 
+ rbodymod = 1 
+ trnqsmod = 0 
+ acnqsmod = 0 
+ fnoimod = 1 
+ tnoimod = 1 
+ permod = 1 
+ geomod = 0 
+ rdsmod = 0 
+ tempmod = 0 
// ******
// NEW BSIM4 Parameters(4.4 Version)
+ lintnoi = -2.0e-07 
+ vfbsdoff = 0 
+ lambda = 0 
+ vtl = 0 
+ lc = 5e-009 
+ xn = 3 
+ rnoia = 0.69 
+ rnoib = 0.34 
+ tnoia = 25e6 
+ tnoib = 0.0e-6 
// NEW BSIM4 Parameters(Process Parameters)
+ epsrox = 3.9 
+ toxe = 4.23e-009 
+ dtox = 0 
+ ndep = 1.7e+017 
+ nsd = 1e+020 
+ rshg = 0.1 
// ***
+ rsh = 1 
// 
//  THRESHOLD VOLTAGE PARAMETERS
// 
+ vth0 = -1.02+0.0 
+ k1 = 1.3255051 
+ k2 = -0.28016116+0.0 
+ k3 = -15.845 
+ dvt0 = 4.4955 
+ dvt1 = 0.294 
+ dvt2 = 0.015 
+ dvt0w = -4.9772 
+ dvt1w = 1147200 
+ dvt2w = -0.00896 
+ w0 = 0 
+ k3b = 2 
// NEW BSIM4 Parameters for Level 54
+ phin = 0 
+ lpe0 = 0 
+ lpeb = 0 
+ vbm = -3 
+ dvtp0 = 0 
+ dvtp1 = 0 
// 
//  MOBILITY PARAMETERS
// 
+ vsat = 59524+0.0 
+ ua = -2.4816e-009+0.0 
+ ub = 2.1055982e-018+0.0 
+ uc = 9.1597053e-014 
+ rdsw = 547.88+0.0 
+ prwb = -0.32348 
+ prwg = 0.1376 
+ wr = 1 
+ u0 = 0.0024424+0.0 
+ a0 = 0.80890904+0.0 
+ keta = 0.027840733+0.0 
+ a1 = 0 
+ a2 = 0.9995 
+ ags = 1.25+0.0 
+ b0 = 0+0.0 
+ b1 = 0+0.0 
// NEW BSIM4 Parameters(Mobility Parameters)
+ eu = 1.67 
+ rdswmin = 0 
+ rdw = 0 
+ rdwmin = 0 
+ rsw = 0 
+ rswmin = 0 
// ****
// 
//  SUBTHRESHOLD CURRENT PARAMETERS
// 
+ voff = -0.27372667+0.0 
+ nfactor = 1.9+0.0 
+ up = 0.0
+ ud = 0.0
+ lp = 1.0
+ tvfbsdoff = 0.0
+ tvoff = 0+0.0
+ cit = 1e-005 
+ cdsc = 0.00013 
+ cdscb = 0.00078 
+ cdscd = 0 
+ eta0 = 0.3010182+0.0 
+ etab = -0.035338434 
+ dsub = 0.26 
// NEW BSIM4 Parameters(Sub-threshold parameters)
+ voffl = 0 
+ minv = 0 
// ****
// 
//  ROUT PARAMETERS
// 
+ pclm = 0.47998966+0.0 
+ pdiblc1 = 0.0195 
+ pdiblc2 = 0.00043 
+ pdiblcb = -2.4222865e-005 
+ drout = 1 
+ pscbe1 = 8e+008 
+ pscbe2 = 9.3226724e-009 
+ pvag = 0 
+ delta = 0.01 
+ alpha0 = 1e-010 
+ alpha1 = 1e-010 
+ beta0 = 7.537679 
// NEW BSIM4 Parameters(ROUT Parameters)
+ fprout = 0 
+ pdits = 0+0.0 
+ pditsl = 0 
+ pditsd = 0+0.0 
// ***
// NEW BSIM4 Parameters(GATE INDUCED DRAIN LEAKAGE MODEL PARAMTERS)
+ agidl = 2.8211658e-010+0.0 
+ bgidl = 1e009+0.0 
+ cgidl = 300+0.0 
+ egidl = 0.1 
// ***
// NEW BSIM4 Parameters(Gate Leakage Current Parameters)
+ aigbacc = 0.43 
+ bigbacc = 0.054 
+ cigbacc = 0.075 
+ nigbacc = 1 
+ aigbinv = 0.35 
+ bigbinv = 0.03 
+ cigbinv = 0.006 
+ eigbinv = 1.1 
+ nigbinv = 3 
+ aigc = 0.43 
+ bigc = 0.054 
+ cigc = 0.075 
+ nigc = 1 
+ aigsd = 0.43 
+ bigsd = 0.054 
+ cigsd = 0.075 
+ dlcig = 0 
+ poxedge = 1 
+ pigcd = 1 
+ ntox = 1 
+ toxref = 4.23e-009 
// ****
// 
//  TEMPERATURE EFFECTS PARAMETERS
// 
+ kt1 = -0.70976+0.0 
+ kt2 = -0.12 
+ at = 39225 
+ ute = -0.21243 
+ ua1 = 1.6473e-010 
+ ub1 = 3.6891e-019 
+ uc1 = 6.4484e-012 
+ kt1l = 0 
+ prt = 0 
// NEW BSIM4 Parameters(HIGH SPEED RF MODEL PARAMETERS)
+ xrcrg1 = 12 
+ xrcrg2 = 1 
+ rbpb = 50 
+ rbpd = 50 
+ rbps = 50 
+ rbdb = 50 
+ rbsb = 50 
+ gbmin = 1e-012 
// ***
// NEW BSIM4 Parameters(FLICKER and THERMAL NOISE PARAMETERS)
+ noia = 1.5e+42 
+ noib = 0.0 
+ noic = 0.0 
+ em = 4.1000000E+07 
+ af = 1 
+ ef = 1.0 
+ kf = 0 
+ ntnoi = 1 
// ****
// NEW BSIM4 Parameters(LAYOUT DEPENDENT PARASITIC MODEL PARAMETERS)
+ dmcg = 0 
+ dmcgt = 0 
+ dmdg = 0 
+ xgw = 0 
+ xgl = 0 
+ ngcon = 1 
// ***
// 
// DIODE DC IV PARAMTERS
// 
// NEW BSIM4 Parameters(DIODE DC IV parameters)
+ diomod = 1 
+ njs = 1.3632 
+ jss = 2.1483e-05 
+ jsws = 8.040000000000001e-10 
+ xtis = 5.2 
+ bvs = 12.69 
+ xjbvs = 1 
+ ijthsrev = 0.1 
+ ijthsfwd = 0.1 
// 
//  DIODE and FET CAPACITANCE PARAMETERS
// 
+ tpb = 0.0020386 
+ tpbsw = 0.001246 
+ tpbswg = 0 
+ tcj = 0.0012407 
+ tcjsw = 0.00037357 
+ tcjswg = 2e-012 
+ cgdo = 5.5e-11 
+ cgso = 5.5e-11 
+ cgbo = 0 
+ capmod = 2 
+ xpart = 0 
+ cgsl = 1.0005e-011 
+ cgdl = 1.0005e-011 
+ cf = 1.2e-011 
+ clc = 1e-007 
+ cle = 0.6 
+ dlc = -3e-09+0.0+0.0 
+ dwc = 0+0.0 
+ vfbcv = -0.14469 
+ acde = 0.8 
+ moin = 18.13 
+ noff = 3.9 
+ voffcv = -0.10701 
+ ngate = 1e+023 
+ lwc = 0 
+ llc = 0 
+ lwlc = 0 
+ wlc = 0 
+ wwc = 0 
+ wwlc = 0 
// NEW BSIM4 Parameters(FET and DIODE capacitance parameters)
+ ckappas = 0.6 
+ cjs = 0.00074079 
+ mjs = 0.34629 
+ pbs = 0.6587 
+ cjsws = 9.88e-011 
+ mjsws = 0.29781 
+ pbsws = 0.7418 
+ cjswgs = 2.3894e-010 
+ mjswgs = 0.9274 
+ pbswgs = 1.4338 
//  
// STRESS PARAMETERS 
//  
+ saref = 1.04e-06
+ sbref = 1.04e-06
+ wlod = 0+0.0
+ kvth0 = 0+0.0
+ lkvth0 = 0+0.0
+ wkvth0 = 0+0.0
+ pkvth0 = 0
+ llodvth = 0
+ wlodvth = 1
+ stk2 = 0
+ lodk2 = 1
+ lodeta0 = 1
+ ku0 = 0+0.0
+ lku0 = 0+0.0
+ wku0 = 0+0.0
+ pku0 = 0
+ llodku0 = 0
+ wlodku0 = 1
+ kvsat = 0+0.0
+ steta0 = 0
+ tku0 = 0
// *****
+)

.model pshort_model.2 pmos (
// 
// DC IV MOS PARAMETERS
// 
+ lmin = 9.95e-07 lmax = 1.005e-06 wmin = 9.95e-07 wmax = 1.005e-06
+ level = 54 
+ tnom = 30 
+ version = 4.5 
+ toxm = 4.23e-009 
+ xj = 1.5e-007 
+ lln = 1 
+ lwn = 1 
+ wln = 1 
+ wwn = 1 
+ lint = -1.3994e-008+0.0 
+ ll = 0 
+ lw = 0 
+ lwl = 0 
+ wint = 7.3039e-009+0.0 
+ wl = 0 
+ ww = 0 
+ wwl = 0 
+ xl = 0 
+ xw = 0 
+ mobmod = 0 
+ binunit = 2 
+ dwg = -5.722e-009 
+ dwb = -1.7864e-008 
// NEW BSIM4 Parameters(Model Selectors)
+ igcmod = 0 
+ igbmod = 0 
+ rgatemod = 0 
+ rbodymod = 1 
+ trnqsmod = 0 
+ acnqsmod = 0 
+ fnoimod = 1 
+ tnoimod = 1 
+ permod = 1 
+ geomod = 0 
+ rdsmod = 0 
+ tempmod = 0 
// ******
// NEW BSIM4 Parameters(4.4 Version)
+ lintnoi = -2.0e-07 
+ vfbsdoff = 0 
+ lambda = 0 
+ vtl = 0 
+ lc = 5e-009 
+ xn = 3 
+ rnoia = 0.69 
+ rnoib = 0.34 
+ tnoia = 25e6 
+ tnoib = 0.0e-6 
// NEW BSIM4 Parameters(Process Parameters)
+ epsrox = 3.9 
+ toxe = 4.23e-009 
+ dtox = 0 
+ ndep = 1.7e+017 
+ nsd = 1e+020 
+ rshg = 0.1 
// ***
+ rsh = 1 
// 
//  THRESHOLD VOLTAGE PARAMETERS
// 
+ vth0 = -1.005+0.0 
+ k1 = 0.45361058 
+ k2 = 0.017567785+0.0 
+ k3 = -15.845 
+ dvt0 = 4.4955 
+ dvt1 = 0.294 
+ dvt2 = 0.015 
+ dvt0w = -4.9772 
+ dvt1w = 1147200 
+ dvt2w = -0.00896 
+ w0 = 0 
+ k3b = 2 
// NEW BSIM4 Parameters for Level 54
+ phin = 0 
+ lpe0 = 0 
+ lpeb = 0 
+ vbm = -3 
+ dvtp0 = 0 
+ dvtp1 = 0 
// 
//  MOBILITY PARAMETERS
// 
+ vsat = 28810.641+0.0 
+ ua = -7.4785951e-010+0.0 
+ ub = 6.5707758e-019+0.0 
+ uc = -4.8679745e-011 
+ rdsw = 547.88+0.0 
+ prwb = -0.32348 
+ prwg = 0.1376 
+ wr = 1 
+ u0 = 0.0072271+0.0 
+ a0 = 0.63175+0.0 
+ keta = -0.037840736+0.0 
+ a1 = 0 
+ a2 = 0.8 
+ ags = 1.153125+0.0 
+ b0 = 0+0.0 
+ b1 = 0+0.0 
// NEW BSIM4 Parameters(Mobility Parameters)
+ eu = 1.67 
+ rdswmin = 0 
+ rdw = 0 
+ rdwmin = 0 
+ rsw = 0 
+ rswmin = 0 
// ****
// 
//  SUBTHRESHOLD CURRENT PARAMETERS
// 
+ voff = -0.17660159+0.0 
+ nfactor = 1.9+0.0 
+ up = 0.0
+ ud = 0.0
+ lp = 1.0
+ tvfbsdoff = 0.0
+ tvoff = 0+0.0
+ cit = 1e-005 
+ cdsc = 0.00013 
+ cdscb = 0.00078 
+ cdscd = 0 
+ eta0 = 0.08+0.0 
+ etab = -0.007 
+ dsub = 0.56 
// NEW BSIM4 Parameters(Sub-threshold parameters)
+ voffl = 0 
+ minv = 0 
// ****
// 
//  ROUT PARAMETERS
// 
+ pclm = 0.37137649+0.0 
+ pdiblc1 = 0.38223933 
+ pdiblc2 = 0.000215 
+ pdiblcb = -0.025 
+ drout = 0.9112528 
+ pscbe1 = 8e+008 
+ pscbe2 = 8.4098587e-009 
+ pvag = 0 
+ delta = 0.01 
+ alpha0 = 1e-010 
+ alpha1 = 1e-010 
+ beta0 = 8.9010262 
// NEW BSIM4 Parameters(ROUT Parameters)
+ fprout = 0 
+ pdits = 0+0.0 
+ pditsl = 0 
+ pditsd = 0+0.0 
// ***
// NEW BSIM4 Parameters(GATE INDUCED DRAIN LEAKAGE MODEL PARAMTERS)
+ agidl = 1e-010+0.0 
+ bgidl = 1e009+0.0 
+ cgidl = 300+0.0 
+ egidl = 0.1 
// ***
// NEW BSIM4 Parameters(Gate Leakage Current Parameters)
+ aigbacc = 0.43 
+ bigbacc = 0.054 
+ cigbacc = 0.075 
+ nigbacc = 1 
+ aigbinv = 0.35 
+ bigbinv = 0.03 
+ cigbinv = 0.006 
+ eigbinv = 1.1 
+ nigbinv = 3 
+ aigc = 0.43 
+ bigc = 0.054 
+ cigc = 0.075 
+ nigc = 1 
+ aigsd = 0.43 
+ bigsd = 0.054 
+ cigsd = 0.075 
+ dlcig = 0 
+ poxedge = 1 
+ pigcd = 1 
+ ntox = 1 
+ toxref = 4.23e-009 
// ****
// 
//  TEMPERATURE EFFECTS PARAMETERS
// 
+ kt1 = -0.51384673+0.0 
+ kt2 = -0.06387541 
+ at = 22950.061 
+ ute = -1.1934315 
+ ua1 = -2.4046243e-010 
+ ub1 = 4.7991978e-019 
+ uc1 = 4.7436576e-011 
+ kt1l = 0 
+ prt = 0 
// NEW BSIM4 Parameters(HIGH SPEED RF MODEL PARAMETERS)
+ xrcrg1 = 12 
+ xrcrg2 = 1 
+ rbpb = 50 
+ rbpd = 50 
+ rbps = 50 
+ rbdb = 50 
+ rbsb = 50 
+ gbmin = 1e-012 
// ***
// NEW BSIM4 Parameters(FLICKER and THERMAL NOISE PARAMETERS)
+ noia = 1.5e+42 
+ noib = 0.0 
+ noic = 0.0 
+ em = 4.1000000E+07 
+ af = 1 
+ ef = 1.0 
+ kf = 0 
+ ntnoi = 1 
// ****
// NEW BSIM4 Parameters(LAYOUT DEPENDENT PARASITIC MODEL PARAMETERS)
+ dmcg = 0 
+ dmcgt = 0 
+ dmdg = 0 
+ xgw = 0 
+ xgl = 0 
+ ngcon = 1 
// ***
// 
// DIODE DC IV PARAMTERS
// 
// NEW BSIM4 Parameters(DIODE DC IV parameters)
+ diomod = 1 
+ njs = 1.3632 
+ jss = 2.1483e-05 
+ jsws = 8.040000000000001e-10 
+ xtis = 5.2 
+ bvs = 12.69 
+ xjbvs = 1 
+ ijthsrev = 0.1 
+ ijthsfwd = 0.1 
// 
//  DIODE and FET CAPACITANCE PARAMETERS
// 
+ tpb = 0.0020386 
+ tpbsw = 0.001246 
+ tpbswg = 0 
+ tcj = 0.0012407 
+ tcjsw = 0.00037357 
+ tcjswg = 2e-012 
+ cgdo = 5.5e-11 
+ cgso = 5.5e-11 
+ cgbo = 0 
+ capmod = 2 
+ xpart = 0 
+ cgsl = 1.0005e-011 
+ cgdl = 1.0005e-011 
+ cf = 1.2e-011 
+ clc = 1e-007 
+ cle = 0.6 
+ dlc = -3e-09+0.0+0.0 
+ dwc = 0+0.0 
+ vfbcv = -0.14469 
+ acde = 0.8 
+ moin = 18.13 
+ noff = 3.9 
+ voffcv = -0.10701 
+ ngate = 1e+023 
+ lwc = 0 
+ llc = 0 
+ lwlc = 0 
+ wlc = 0 
+ wwc = 0 
+ wwlc = 0 
// NEW BSIM4 Parameters(FET and DIODE capacitance parameters)
+ ckappas = 0.6 
+ cjs = 0.00074079 
+ mjs = 0.34629 
+ pbs = 0.6587 
+ cjsws = 9.88e-011 
+ mjsws = 0.29781 
+ pbsws = 0.7418 
+ cjswgs = 2.3894e-010 
+ mjswgs = 0.9274 
+ pbswgs = 1.4338 
//  
// STRESS PARAMETERS 
//  
+ saref = 2.75e-06
+ sbref = 2.74e-06
+ wlod = 0+0.0
+ kvth0 = 0+0.0
+ lkvth0 = 0+0.0
+ wkvth0 = 0+0.0
+ pkvth0 = 0
+ llodvth = 0
+ wlodvth = 1
+ stk2 = 0
+ lodk2 = 1
+ lodeta0 = 1
+ ku0 = 0+0.0
+ lku0 = 0+0.0
+ wku0 = 0+0.0
+ pku0 = 0
+ llodku0 = 0
+ wlodku0 = 1
+ kvsat = 0+0.0
+ steta0 = 0
+ tku0 = 0
// *****
+)

.model pshort_model.3 pmos (
// 
// DC IV MOS PARAMETERS
// 
+ lmin = 1.995e-06 lmax = 2.005e-06 wmin = 9.95e-07 wmax = 1.005e-06
+ level = 54 
+ tnom = 30 
+ version = 4.5 
+ toxm = 4.23e-009 
+ xj = 1.5e-007 
+ lln = 1 
+ lwn = 1 
+ wln = 1 
+ wwn = 1 
+ lint = -1.3994e-008+0.0 
+ ll = 0 
+ lw = 0 
+ lwl = 0 
+ wint = 7.3039e-009+0.0 
+ wl = 0 
+ ww = 0 
+ wwl = 0 
+ xl = 0 
+ xw = 0 
+ mobmod = 0 
+ binunit = 2 
+ dwg = -5.722e-009 
+ dwb = -1.7864e-008 
// NEW BSIM4 Parameters(Model Selectors)
+ igcmod = 0 
+ igbmod = 0 
+ rgatemod = 0 
+ rbodymod = 1 
+ trnqsmod = 0 
+ acnqsmod = 0 
+ fnoimod = 1 
+ tnoimod = 1 
+ permod = 1 
+ geomod = 0 
+ rdsmod = 0 
+ tempmod = 0 
// ******
// NEW BSIM4 Parameters(4.4 Version)
+ lintnoi = -2.0e-07 
+ vfbsdoff = 0 
+ lambda = 0 
+ vtl = 0 
+ lc = 5e-009 
+ xn = 3 
+ rnoia = 0.69 
+ rnoib = 0.34 
+ tnoia = 25e6 
+ tnoib = 0.0e-6 
// NEW BSIM4 Parameters(Process Parameters)
+ epsrox = 3.9 
+ toxe = 4.23e-009 
+ dtox = 0 
+ ndep = 1.7e+017 
+ nsd = 1e+020 
+ rshg = 0.1 
// ***
+ rsh = 1 
// 
//  THRESHOLD VOLTAGE PARAMETERS
// 
+ vth0 = -1.0193+0.0 
+ k1 = 0.46123612 
+ k2 = 0.019412161+0.0 
+ k3 = -15.845 
+ dvt0 = 4.4955 
+ dvt1 = 0.294 
+ dvt2 = 0.015 
+ dvt0w = -4.9772 
+ dvt1w = 1147200 
+ dvt2w = -0.00896 
+ w0 = 0 
+ k3b = 2 
// NEW BSIM4 Parameters for Level 54
+ phin = 0 
+ lpe0 = 0 
+ lpeb = 0 
+ vbm = -3 
+ dvtp0 = 0 
+ dvtp1 = 0 
// 
//  MOBILITY PARAMETERS
// 
+ vsat = 53437.5+0.0 
+ ua = -1.0211363e-009+0.0 
+ ub = 7.9306706e-019+0.0 
+ uc = -4.5032348e-011 
+ rdsw = 547.88+0.0 
+ prwb = -0.32348 
+ prwg = 0.1376 
+ wr = 1 
+ u0 = 0.006259+0.0 
+ a0 = 1.1302+0.0 
+ keta = -0.0048142243+0.0 
+ a1 = 0 
+ a2 = 0.8 
+ ags = 0.37980837+0.0 
+ b0 = 0+0.0 
+ b1 = 0+0.0 
// NEW BSIM4 Parameters(Mobility Parameters)
+ eu = 1.67 
+ rdswmin = 0 
+ rdw = 0 
+ rdwmin = 0 
+ rsw = 0 
+ rswmin = 0 
// ****
// 
//  SUBTHRESHOLD CURRENT PARAMETERS
// 
+ voff = -0.17603939+0.0 
+ nfactor = 1.5884088+0.0 
+ up = 0.0
+ ud = 0.0
+ lp = 1.0
+ tvfbsdoff = 0.0
+ tvoff = 0+0.0
+ cit = 1e-005 
+ cdsc = 0.00013 
+ cdscb = 0.00078 
+ cdscd = 0 
+ eta0 = 0.0005+0.0 
+ etab = -0.00050000149 
+ dsub = 0.26 
// NEW BSIM4 Parameters(Sub-threshold parameters)
+ voffl = 0 
+ minv = 0 
// ****
// 
//  ROUT PARAMETERS
// 
+ pclm = 0.35228743+0.0 
+ pdiblc1 = 0.39 
+ pdiblc2 = 0.000215 
+ pdiblcb = -0.225 
+ drout = 0.56 
+ pscbe1 = 8e+008 
+ pscbe2 = 9.3721337e-009 
+ pvag = 0 
+ delta = 0.01 
+ alpha0 = 3.048987e-012 
+ alpha1 = -2.9238605e-015 
+ beta0 = 3 
// NEW BSIM4 Parameters(ROUT Parameters)
+ fprout = 0 
+ pdits = 0+0.0 
+ pditsl = 0 
+ pditsd = 0+0.0 
// ***
// NEW BSIM4 Parameters(GATE INDUCED DRAIN LEAKAGE MODEL PARAMTERS)
+ agidl = 2.4838246e-010+0.0 
+ bgidl = 1e009+0.0 
+ cgidl = 300+0.0 
+ egidl = 0.1 
// ***
// NEW BSIM4 Parameters(Gate Leakage Current Parameters)
+ aigbacc = 0.43 
+ bigbacc = 0.054 
+ cigbacc = 0.075 
+ nigbacc = 1 
+ aigbinv = 0.35 
+ bigbinv = 0.03 
+ cigbinv = 0.006 
+ eigbinv = 1.1 
+ nigbinv = 3 
+ aigc = 0.43 
+ bigc = 0.054 
+ cigc = 0.075 
+ nigc = 1 
+ aigsd = 0.43 
+ bigsd = 0.054 
+ cigsd = 0.075 
+ dlcig = 0 
+ poxedge = 1 
+ pigcd = 1 
+ ntox = 1 
+ toxref = 4.23e-009 
// ****
// 
//  TEMPERATURE EFFECTS PARAMETERS
// 
+ kt1 = -0.47097+0.0 
+ kt2 = -0.045529 
+ at = 7459.5 
+ ute = -0.89505 
+ ua1 = -1.5331e-010 
+ ub1 = 7.4669e-019 
+ uc1 = 6.1866e-011 
+ kt1l = 0 
+ prt = 0 
// NEW BSIM4 Parameters(HIGH SPEED RF MODEL PARAMETERS)
+ xrcrg1 = 12 
+ xrcrg2 = 1 
+ rbpb = 50 
+ rbpd = 50 
+ rbps = 50 
+ rbdb = 50 
+ rbsb = 50 
+ gbmin = 1e-012 
// ***
// NEW BSIM4 Parameters(FLICKER and THERMAL NOISE PARAMETERS)
+ noia = 1.5e+42 
+ noib = 0.0 
+ noic = 0.0 
+ em = 4.1000000E+07 
+ af = 1 
+ ef = 1.0 
+ kf = 0 
+ ntnoi = 1 
// ****
// NEW BSIM4 Parameters(LAYOUT DEPENDENT PARASITIC MODEL PARAMETERS)
+ dmcg = 0 
+ dmcgt = 0 
+ dmdg = 0 
+ xgw = 0 
+ xgl = 0 
+ ngcon = 1 
// ***
// 
// DIODE DC IV PARAMTERS
// 
// NEW BSIM4 Parameters(DIODE DC IV parameters)
+ diomod = 1 
+ njs = 1.3632 
+ jss = 2.1483e-05 
+ jsws = 8.040000000000001e-10 
+ xtis = 5.2 
+ bvs = 12.69 
+ xjbvs = 1 
+ ijthsrev = 0.1 
+ ijthsfwd = 0.1 
// 
//  DIODE and FET CAPACITANCE PARAMETERS
// 
+ tpb = 0.0020386 
+ tpbsw = 0.001246 
+ tpbswg = 0 
+ tcj = 0.0012407 
+ tcjsw = 0.00037357 
+ tcjswg = 2e-012 
+ cgdo = 5.5e-11 
+ cgso = 5.5e-11 
+ cgbo = 0 
+ capmod = 2 
+ xpart = 0 
+ cgsl = 1.0005e-011 
+ cgdl = 1.0005e-011 
+ cf = 1.2e-011 
+ clc = 1e-007 
+ cle = 0.6 
+ dlc = -3e-09+0.0+0.0 
+ dwc = 0+0.0 
+ vfbcv = -0.14469 
+ acde = 0.8 
+ moin = 18.13 
+ noff = 3.9 
+ voffcv = -0.10701 
+ ngate = 1e+023 
+ lwc = 0 
+ llc = 0 
+ lwlc = 0 
+ wlc = 0 
+ wwc = 0 
+ wwlc = 0 
// NEW BSIM4 Parameters(FET and DIODE capacitance parameters)
+ ckappas = 0.6 
+ cjs = 0.00074079 
+ mjs = 0.34629 
+ pbs = 0.6587 
+ cjsws = 9.88e-011 
+ mjsws = 0.29781 
+ pbsws = 0.7418 
+ cjswgs = 2.3894e-010 
+ mjswgs = 0.9274 
+ pbswgs = 1.4338 
//  
// STRESS PARAMETERS 
//  
+ saref = 3.0e-06
+ sbref = 3.0e-06
+ wlod = 0+0.0
+ kvth0 = 0+0.0
+ lkvth0 = 0+0.0
+ wkvth0 = 0+0.0
+ pkvth0 = 0
+ llodvth = 0
+ wlodvth = 1
+ stk2 = 0
+ lodk2 = 1
+ lodeta0 = 1
+ ku0 = 0+0.0
+ lku0 = 0+0.0
+ wku0 = 0+0.0
+ pku0 = 0
+ llodku0 = 0
+ wlodku0 = 1
+ kvsat = 0+0.0
+ steta0 = 0
+ tku0 = 0
// *****
+)

.model pshort_model.4 pmos (
// 
// DC IV MOS PARAMETERS
// 
+ lmin = 3.995e-06 lmax = 4.005e-06 wmin = 9.95e-07 wmax = 1.005e-06
+ level = 54 
+ tnom = 30 
+ version = 4.5 
+ toxm = 4.23e-009 
+ xj = 1.5e-007 
+ lln = 1 
+ lwn = 1 
+ wln = 1 
+ wwn = 1 
+ lint = -1.3994e-008+0.0 
+ ll = 0 
+ lw = 0 
+ lwl = 0 
+ wint = 7.3039e-009+0.0 
+ wl = 0 
+ ww = 0 
+ wwl = 0 
+ xl = 0 
+ xw = 0 
+ mobmod = 0 
+ binunit = 2 
+ dwg = -5.722e-009 
+ dwb = -1.7864e-008 
// NEW BSIM4 Parameters(Model Selectors)
+ igcmod = 0 
+ igbmod = 0 
+ rgatemod = 0 
+ rbodymod = 1 
+ trnqsmod = 0 
+ acnqsmod = 0 
+ fnoimod = 1 
+ tnoimod = 1 
+ permod = 1 
+ geomod = 0 
+ rdsmod = 0 
+ tempmod = 0 
// ******
// NEW BSIM4 Parameters(4.4 Version)
+ lintnoi = -2.0e-07 
+ vfbsdoff = 0 
+ lambda = 0 
+ vtl = 0 
+ lc = 5e-009 
+ xn = 3 
+ rnoia = 0.69 
+ rnoib = 0.34 
+ tnoia = 25e6 
+ tnoib = 0.0e-6 
// NEW BSIM4 Parameters(Process Parameters)
+ epsrox = 3.9 
+ toxe = 4.23e-009 
+ dtox = 0 
+ ndep = 1.7e+017 
+ nsd = 1e+020 
+ rshg = 0.1 
// ***
+ rsh = 1 
// 
//  THRESHOLD VOLTAGE PARAMETERS
// 
+ vth0 = -1.01+0.0 
+ k1 = 0.44975853 
+ k2 = 0.023544581+0.0 
+ k3 = -15.845 
+ dvt0 = 4.4955 
+ dvt1 = 0.294 
+ dvt2 = 0.015 
+ dvt0w = -4.9772 
+ dvt1w = 1147200 
+ dvt2w = -0.00896 
+ w0 = 0 
+ k3b = 2 
// NEW BSIM4 Parameters for Level 54
+ phin = 0 
+ lpe0 = 0 
+ lpeb = 0 
+ vbm = -3 
+ dvtp0 = 0 
+ dvtp1 = 0 
// 
//  MOBILITY PARAMETERS
// 
+ vsat = 42745.77+0.0 
+ ua = -8.2697914e-010+0.0 
+ ub = 6.6035544e-019+0.0 
+ uc = -5.4570621e-011 
+ rdsw = 547.88+0.0 
+ prwb = -0.32348 
+ prwg = 0.1376 
+ wr = 1 
+ u0 = 0.0068894+0.0 
+ a0 = 1.1794+0.0 
+ keta = 0.0032223923+0.0 
+ a1 = 0 
+ a2 = 0.8 
+ ags = 0.29875546+0.0 
+ b0 = 0+0.0 
+ b1 = 0+0.0 
// NEW BSIM4 Parameters(Mobility Parameters)
+ eu = 1.67 
+ rdswmin = 0 
+ rdw = 0 
+ rdwmin = 0 
+ rsw = 0 
+ rswmin = 0 
// ****
// 
//  SUBTHRESHOLD CURRENT PARAMETERS
// 
+ voff = -0.1748426+0.0 
+ nfactor = 1.9+0.0 
+ up = 0.0
+ ud = 0.0
+ lp = 1.0
+ tvfbsdoff = 0.0
+ tvoff = 0+0.0
+ cit = 1e-005 
+ cdsc = 0.00013 
+ cdscb = 0.00078 
+ cdscd = 0 
+ eta0 = 0.08+0.0 
+ etab = -0.07 
+ dsub = 0.56 
// NEW BSIM4 Parameters(Sub-threshold parameters)
+ voffl = 0 
+ minv = 0 
// ****
// 
//  ROUT PARAMETERS
// 
+ pclm = 0.038003634+0.0 
+ pdiblc1 = 0.39 
+ pdiblc2 = 0.0010378863 
+ pdiblcb = -0.225 
+ drout = 0.56 
+ pscbe1 = 7.9999998e+008 
+ pscbe2 = 9.5028802e-009 
+ pvag = 0 
+ delta = 0.01 
+ alpha0 = 0 
+ alpha1 = 0 
+ beta0 = 30 
// NEW BSIM4 Parameters(ROUT Parameters)
+ fprout = 0 
+ pdits = 0+0.0 
+ pditsl = 0 
+ pditsd = 0+0.0 
// ***
// NEW BSIM4 Parameters(GATE INDUCED DRAIN LEAKAGE MODEL PARAMTERS)
+ agidl = 1.5747859e-010+0.0 
+ bgidl = 1e009+0.0 
+ cgidl = 300+0.0 
+ egidl = 0.1 
// ***
// NEW BSIM4 Parameters(Gate Leakage Current Parameters)
+ aigbacc = 0.43 
+ bigbacc = 0.054 
+ cigbacc = 0.075 
+ nigbacc = 1 
+ aigbinv = 0.35 
+ bigbinv = 0.03 
+ cigbinv = 0.006 
+ eigbinv = 1.1 
+ nigbinv = 3 
+ aigc = 0.43 
+ bigc = 0.054 
+ cigc = 0.075 
+ nigc = 1 
+ aigsd = 0.43 
+ bigsd = 0.054 
+ cigsd = 0.075 
+ dlcig = 0 
+ poxedge = 1 
+ pigcd = 1 
+ ntox = 1 
+ toxref = 4.23e-009 
// ****
// 
//  TEMPERATURE EFFECTS PARAMETERS
// 
+ kt1 = -0.46128+0.0 
+ kt2 = -0.026742 
+ at = 55268.5 
+ ute = -0.07 
+ ua1 = 1.9196e-009 
+ ub1 = -1.0155e-018 
+ uc1 = -8e-011 
+ kt1l = 0 
+ prt = 0 
// NEW BSIM4 Parameters(HIGH SPEED RF MODEL PARAMETERS)
+ xrcrg1 = 12 
+ xrcrg2 = 1 
+ rbpb = 50 
+ rbpd = 50 
+ rbps = 50 
+ rbdb = 50 
+ rbsb = 50 
+ gbmin = 1e-012 
// ***
// NEW BSIM4 Parameters(FLICKER and THERMAL NOISE PARAMETERS)
+ noia = 1.5e+42 
+ noib = 0.0 
+ noic = 0.0 
+ em = 4.1000000E+07 
+ af = 1 
+ ef = 1.0 
+ kf = 0 
+ ntnoi = 1 
// ****
// NEW BSIM4 Parameters(LAYOUT DEPENDENT PARASITIC MODEL PARAMETERS)
+ dmcg = 0 
+ dmcgt = 0 
+ dmdg = 0 
+ xgw = 0 
+ xgl = 0 
+ ngcon = 1 
// ***
// 
// DIODE DC IV PARAMTERS
// 
// NEW BSIM4 Parameters(DIODE DC IV parameters)
+ diomod = 1 
+ njs = 1.3632 
+ jss = 2.1483e-05 
+ jsws = 8.040000000000001e-10 
+ xtis = 5.2 
+ bvs = 12.69 
+ xjbvs = 1 
+ ijthsrev = 0.1 
+ ijthsfwd = 0.1 
// 
//  DIODE and FET CAPACITANCE PARAMETERS
// 
+ tpb = 0.0020386 
+ tpbsw = 0.001246 
+ tpbswg = 0 
+ tcj = 0.0012407 
+ tcjsw = 0.00037357 
+ tcjswg = 2e-012 
+ cgdo = 5.5e-11 
+ cgso = 5.5e-11 
+ cgbo = 0 
+ capmod = 2 
+ xpart = 0 
+ cgsl = 1.0005e-011 
+ cgdl = 1.0005e-011 
+ cf = 1.2e-011 
+ clc = 1e-007 
+ cle = 0.6 
+ dlc = -3e-09+0.0+0.0 
+ dwc = 0+0.0 
+ vfbcv = -0.14469 
+ acde = 0.8 
+ moin = 18.13 
+ noff = 3.9 
+ voffcv = -0.10701 
+ ngate = 1e+023 
+ lwc = 0 
+ llc = 0 
+ lwlc = 0 
+ wlc = 0 
+ wwc = 0 
+ wwlc = 0 
// NEW BSIM4 Parameters(FET and DIODE capacitance parameters)
+ ckappas = 0.6 
+ cjs = 0.00074079 
+ mjs = 0.34629 
+ pbs = 0.6587 
+ cjsws = 9.88e-011 
+ mjsws = 0.29781 
+ pbsws = 0.7418 
+ cjswgs = 2.3894e-010 
+ mjswgs = 0.9274 
+ pbswgs = 1.4338 
//  
// STRESS PARAMETERS 
//  
+ saref = 3.0e-06
+ sbref = 3.0e-06
+ wlod = 0+0.0
+ kvth0 = 0+0.0
+ lkvth0 = 0+0.0
+ wkvth0 = 0+0.0
+ pkvth0 = 0
+ llodvth = 0
+ wlodvth = 1
+ stk2 = 0
+ lodk2 = 1
+ lodeta0 = 1
+ ku0 = 0+0.0
+ lku0 = 0+0.0
+ wku0 = 0+0.0
+ pku0 = 0
+ llodku0 = 0
+ wlodku0 = 1
+ kvsat = 0+0.0
+ steta0 = 0
+ tku0 = 0
// *****
+)

.model pshort_model.5 pmos (
// 
// DC IV MOS PARAMETERS
// 
+ lmin = 7.995e-06 lmax = 8.005e-06 wmin = 9.95e-07 wmax = 1.005e-06
+ level = 54 
+ tnom = 30 
+ version = 4.5 
+ toxm = 4.23e-009 
+ xj = 1.5e-007 
+ lln = 1 
+ lwn = 1 
+ wln = 1 
+ wwn = 1 
+ lint = -1.3994e-008+0.0 
+ ll = 0 
+ lw = 0 
+ lwl = 0 
+ wint = 7.3039e-009+0.0 
+ wl = 0 
+ ww = 0 
+ wwl = 0 
+ xl = 0 
+ xw = 0 
+ mobmod = 0 
+ binunit = 2 
+ dwg = -5.722e-009 
+ dwb = -1.7864e-008 
// NEW BSIM4 Parameters(Model Selectors)
+ igcmod = 0 
+ igbmod = 0 
+ rgatemod = 0 
+ rbodymod = 1 
+ trnqsmod = 0 
+ acnqsmod = 0 
+ fnoimod = 1 
+ tnoimod = 1 
+ permod = 1 
+ geomod = 0 
+ rdsmod = 0 
+ tempmod = 0 
// ******
// NEW BSIM4 Parameters(4.4 Version)
+ lintnoi = -2.0e-07 
+ vfbsdoff = 0 
+ lambda = 0 
+ vtl = 0 
+ lc = 5e-009 
+ xn = 3 
+ rnoia = 0.69 
+ rnoib = 0.34 
+ tnoia = 25e6 
+ tnoib = 0.0e-6 
// NEW BSIM4 Parameters(Process Parameters)
+ epsrox = 3.9 
+ toxe = 4.23e-009 
+ dtox = 0 
+ ndep = 1.7e+017 
+ nsd = 1e+020 
+ rshg = 0.1 
// ***
+ rsh = 1 
// 
//  THRESHOLD VOLTAGE PARAMETERS
// 
+ vth0 = -0.99608+0.0 
+ k1 = 0.49177002 
+ k2 = 0.012599753+0.0 
+ k3 = -15.845 
+ dvt0 = 4.4955 
+ dvt1 = 0.294 
+ dvt2 = 0.015 
+ dvt0w = -4.9772 
+ dvt1w = 1147200 
+ dvt2w = -0.00896 
+ w0 = 0 
+ k3b = 2 
// NEW BSIM4 Parameters for Level 54
+ phin = 0 
+ lpe0 = 0 
+ lpeb = 0 
+ vbm = -3 